@<TRIPOS>MOLECULE
ZINC000006073474
60    62    1     0     0
SMALL
USER_CHARGES
@<TRIPOS>ATOM
1      O1     -0.0173    1.4248    0.0099 O.3      1 ZINC000006073474   -0.5700
2      C2      0.0021   -0.0041    0.0020 C.3      1 ZINC000006073474    0.0400
3      C3     -1.4333   -0.5336    0.0129 C.3      1 ZINC000006073474    0.0800
4      H4     -1.9701   -0.1109    0.8621 H        1 ZINC000006073474    0.1100
5      O5     -2.0889   -0.1578   -1.2000 O.3      1 ZINC000006073474   -0.5300
6      C6     -1.4133   -2.0590    0.1302 C.3      1 ZINC000006073474    0.0600
7      H7     -0.8764   -2.4817   -0.7190 H        1 ZINC000006073474    0.1100
8      O8     -0.7577   -2.4349    1.3431 O.3      1 ZINC000006073474   -0.5400
9      C9     -2.8486   -2.5886    0.1411 C.3      1 ZINC000006073474    0.0600
10     H10    -3.3855   -2.1659    0.9903 H        1 ZINC000006073474    0.1100
11     O11    -3.5042   -2.2127   -1.0718 O.3      1 ZINC000006073474   -0.5300
12     C12    -2.8286   -4.1140    0.2584 C.3      1 ZINC000006073474    0.1000
13     H13    -2.4089   -4.3987    1.2233 H        1 ZINC000006073474    0.1100
14     O14    -2.0270   -4.6619   -0.7901 O.3      1 ZINC000006073474   -0.5400
15     C15    -4.2559   -4.6531    0.1441 C.3      1 ZINC000006073474   -0.0100
16     N16    -4.2515   -6.0997    0.3752 N.2      1 ZINC000006073474   -0.1200
17     N17    -4.9091   -6.5802    1.3102 N.2      1 ZINC000006073474   -0.1800
18     C18    -4.9049   -7.9391    1.5273 C.ar     1 ZINC000006073474    0.5500
19     N19    -4.1916   -8.7362    0.7381 N.ar     1 ZINC000006073474   -0.5900
20     C20    -4.1878  -10.0493    0.9481 C.ar     1 ZINC000006073474    0.5600
21     N21    -3.4469  -10.8769    0.1289 N.3      1 ZINC000006073474   -0.4500
22     C22    -2.4989  -11.6824    0.9125 C.3      1 ZINC000006073474    0.0300
23     C23    -1.7421  -12.6261   -0.0258 C.3      1 ZINC000006073474    0.0600
24     O24    -1.0902  -11.8587   -1.0415 O.3      1 ZINC000006073474   -0.3800
25     C25    -1.9840  -11.0627   -1.8243 C.3      1 ZINC000006073474    0.0600
26     C26    -2.7433  -10.1031   -0.9042 C.3      1 ZINC000006073474    0.0300
27     N27    -4.8970  -10.5646    1.9468 N.ar     1 ZINC000006073474   -0.5700
28     C28    -5.6101   -9.7680    2.7359 C.ar     1 ZINC000006073474    0.5700
29     N29    -6.3462  -10.3036    3.7734 N.3      1 ZINC000006073474   -0.4500
30     C30    -7.2887  -11.3189    3.2814 C.3      1 ZINC000006073474    0.0300
31     C31    -8.0400  -11.9277    4.4683 C.3      1 ZINC000006073474    0.0600
32     O32    -8.6971  -10.8859    5.1952 O.3      1 ZINC000006073474   -0.3800
33     C33    -7.8087   -9.8800    5.6895 C.3      1 ZINC000006073474    0.0600
34     C34    -7.0551   -9.2505    4.5149 C.3      1 ZINC000006073474    0.0300
35     N35    -5.6099   -8.4543    2.5297 N.ar     1 ZINC000006073474   -0.5700
36     H36     0.8606    1.8301    0.0037 H        1 ZINC000006073474    0.3800
37     H37     0.5123   -0.3556   -0.8948 H        1 ZINC000006073474    0.0500
38     H38     0.5293   -0.3651    0.8851 H        1 ZINC000006073474    0.0600
39     H39    -1.6646   -0.4999   -1.9987 H        1 ZINC000006073474    0.3700
40     H40    -1.1820   -2.0928    2.1418 H        1 ZINC000006073474    0.3800
41     H41    -3.0799   -2.5548   -1.8705 H        1 ZINC000006073474    0.3700
42     H42    -2.3424   -4.4482   -1.6789 H        1 ZINC000006073474    0.3700
43     H43    -4.8881   -4.1682    0.8879 H        1 ZINC000006073474    0.0800
44     H44    -4.6438   -4.4456   -0.8532 H        1 ZINC000006073474    0.1300
45     H45    -1.7907  -11.0239    1.4154 H        1 ZINC000006073474    0.0600
46     H46    -3.0438  -12.2664    1.6542 H        1 ZINC000006073474    0.1100
47     H47    -0.9981  -13.1847    0.5422 H        1 ZINC000006073474    0.1100
48     H48    -2.4442  -13.3200   -0.4882 H        1 ZINC000006073474    0.0700
49     H49    -1.4149  -10.4905   -2.5571 H        1 ZINC000006073474    0.1100
50     H50    -2.6931  -11.7111   -2.3390 H        1 ZINC000006073474    0.0600
51     H51    -3.4665   -9.5343   -1.4886 H        1 ZINC000006073474    0.1000
52     H52    -2.0389   -9.4194   -0.4304 H        1 ZINC000006073474    0.0700
53     H53    -8.0009  -10.8543    2.5994 H        1 ZINC000006073474    0.0600
54     H54    -6.7399  -12.1017    2.7578 H        1 ZINC000006073474    0.1100
55     H55    -8.7802  -12.6400    4.1039 H        1 ZINC000006073474    0.1100
56     H56    -7.3338  -12.4385    5.1228 H        1 ZINC000006073474    0.0700
57     H57    -8.3816   -9.1114    6.2082 H        1 ZINC000006073474    0.1100
58     H58    -7.0958  -10.3313    6.3795 H        1 ZINC000006073474    0.0600
59     H59    -6.3357   -8.5235    4.8917 H        1 ZINC000006073474    0.1000
60     H60    -7.7635   -8.7529    3.8526 H        1 ZINC000006073474    0.0700
@<TRIPOS>BOND
1     1     2     1
2     1     36    1
3     2     3     1
4     2     37    1
5     2     38    1
6     3     4     1
7     3     5     1
8     3     6     1
9     5     39    1
10    6     7     1
11    6     8     1
12    6     9     1
13    8     40    1
14    9     10    1
15    9     11    1
16    9     12    1
17    11    41    1
18    12    13    1
19    12    14    1
20    12    15    1
21    14    42    1
22    15    16    1
23    15    43    1
24    15    44    1
25    16    17    2
26    17    18    1
27    18    35    ar
28    18    19    ar
29    19    20    ar
30    20    21    1
31    20    27    ar
32    21    26    1
33    21    22    1
34    22    23    1
35    22    45    1
36    22    46    1
37    23    24    1
38    23    47    1
39    23    48    1
40    24    25    1
41    25    26    1
42    25    49    1
43    25    50    1
44    26    51    1
45    26    52    1
46    27    28    ar
47    28    29    1
48    28    35    ar
49    29    34    1
50    29    30    1
51    30    31    1
52    30    53    1
53    30    54    1
54    31    32    1
55    31    55    1
56    31    56    1
57    32    33    1
58    33    34    1
59    33    57    1
60    33    58    1
61    34    59    1
62    34    60    1
@<TRIPOS>SUBSTRUCTURE
1   ZINC000006073474 1     RESIDUE    1   A     ZIN   1
@<TRIPOS>MOLECULE
ZINC000015721403
64    64    1     0     0
SMALL
USER_CHARGES
@<TRIPOS>ATOM
1      C1     -0.0187    1.5258    0.0104 C.3      1 ZINC000015721403   -0.1800
2      C2      0.0021   -0.0041    0.0020 C.3      1 ZINC000015721403    0.0100
3      H3     -1.0205   -0.3814    0.0098 H        1 ZINC000015721403    0.1700
4      N4      0.7126   -0.4907    1.1921 N.4      1 ZINC000015721403   -0.6200
5      H5      1.6592   -0.1414    1.1850 H        1 ZINC000015721403    0.4400
6      H6      0.2403   -0.1653    2.0223 H        1 ZINC000015721403    0.4400
7      H7      0.7262   -1.4996    1.1866 H        1 ZINC000015721403    0.4400
8      C8      0.7074   -0.4901   -1.2379 C.2      1 ZINC000015721403    0.5000
9      O9      1.8643   -0.8489   -1.1761 O.2      1 ZINC000015721403   -0.5200
10     N10     0.0527   -0.5260   -2.4153 N.am     1 ZINC000015721403   -0.6800
11     C11     0.7384   -0.9985   -3.6207 C.3      1 ZINC000015721403    0.1300
12     H12     1.7850   -0.6961   -3.5854 H        1 ZINC000015721403    0.1200
13     C13     0.6505   -2.5243   -3.6925 C.3      1 ZINC000015721403   -0.1600
14     C14     0.0833   -0.3997   -4.8386 C.2      1 ZINC000015721403    0.5100
15     O15    -0.8632    0.3481   -4.7122 O.2      1 ZINC000015721403   -0.5200
16     N16     0.5492   -0.6952   -6.0683 N.am     1 ZINC000015721403   -0.7000
17     C17    -0.0876   -0.1131   -7.2523 C.3      1 ZINC000015721403    0.1400
18     H18    -1.1602   -0.0226   -7.0805 H        1 ZINC000015721403    0.1200
19     C19     0.5045    1.2719   -7.5209 C.3      1 ZINC000015721403   -0.1000
20     C20     0.1539    2.1971   -6.3842 C.ar     1 ZINC000015721403   -0.0700
21     C21    -1.0141    2.9356   -6.4305 C.ar     1 ZINC000015721403   -0.0800
22     C22    -1.3377    3.7845   -5.3897 C.ar     1 ZINC000015721403   -0.1300
23     C23    -0.4898    3.8953   -4.2973 C.ar     1 ZINC000015721403    0.1000
24     O24    -0.8062    4.7293   -3.2720 O.3      1 ZINC000015721403   -0.5000
25     C25     0.6813    3.1529   -4.2530 C.ar     1 ZINC000015721403   -0.1400
26     C26     0.9980    2.3018   -5.2941 C.ar     1 ZINC000015721403   -0.1000
27     C27     0.1570   -1.0035   -8.4432 C.2      1 ZINC000015721403    0.5100
28     O28     0.8000   -2.0239   -8.3155 O.2      1 ZINC000015721403   -0.5400
29     N29    -0.3387   -0.6660   -9.6501 N.am     1 ZINC000015721403   -0.7000
30     C30    -0.1009   -1.5317  -10.8079 C.3      1 ZINC000015721403    0.1200
31     H31     0.8894   -1.9802  -10.7288 H        1 ZINC000015721403    0.1200
32     C32    -1.1594   -2.6358  -10.8451 C.3      1 ZINC000015721403   -0.1600
33     C33    -0.1829   -0.7145  -12.0714 C.2      1 ZINC000015721403    0.5000
34     O34    -0.4169    0.4740  -12.0108 O.2      1 ZINC000015721403   -0.5600
35     N35     0.0039   -1.3043  -13.2687 N.am     1 ZINC000015721403   -0.6800
36     C36    -0.0758   -0.5099  -14.4971 C.3      1 ZINC000015721403    0.0700
37     H37    -0.8343    0.2641  -14.3806 H        1 ZINC000015721403    0.0800
38     C38     1.2807    0.1425  -14.7714 C.3      1 ZINC000015721403   -0.1400
39     C39    -0.4451   -1.4055  -15.6515 C.2      1 ZINC000015721403    0.4900
40     O40    -0.7420   -0.9193  -16.7294 O.co2    1 ZINC000015721403   -0.6800
41     O41    -0.4469   -2.6162  -15.5074 O.co2    1 ZINC000015721403   -0.6900
42     H42     1.0039    1.9031    0.0027 H        1 ZINC000015721403    0.0900
43     H43    -0.5459    1.8868   -0.8726 H        1 ZINC000015721403    0.1100
44     H44    -0.5289    1.8773    0.9072 H        1 ZINC000015721403    0.1000
45     H45    -0.8726   -0.2391   -2.4647 H        1 ZINC000015721403    0.4200
46     H46     1.1243   -2.9573   -2.8115 H        1 ZINC000015721403    0.0700
47     H47    -0.3961   -2.8266   -3.7278 H        1 ZINC000015721403    0.0700
48     H48     1.1607   -2.8758   -4.5893 H        1 ZINC000015721403    0.0900
49     H49     1.3062   -1.2932   -6.1693 H        1 ZINC000015721403    0.4100
50     H50     1.5884    1.1937   -7.6046 H        1 ZINC000015721403    0.0900
51     H51     0.0959    1.6676   -8.4507 H        1 ZINC000015721403    0.1000
52     H52    -1.6738    2.8490   -7.2812 H        1 ZINC000015721403    0.1300
53     H53    -2.2498    4.3616   -5.4267 H        1 ZINC000015721403    0.1300
54     H54    -1.3295    4.3130   -2.5735 H        1 ZINC000015721403    0.3800
55     H55     1.3432    3.2377   -3.4038 H        1 ZINC000015721403    0.1200
56     H56     1.9094    1.7234   -5.2599 H        1 ZINC000015721403    0.1100
57     H57    -0.8530    0.1501   -9.7523 H        1 ZINC000015721403    0.4100
58     H58    -2.1497   -2.1873  -10.9241 H        1 ZINC000015721403    0.0600
59     H59    -0.9825   -3.2799  -11.7064 H        1 ZINC000015721403    0.0800
60     H60    -1.1001   -3.2269   -9.9312 H        1 ZINC000015721403    0.0700
61     H61     0.1911   -2.2549  -13.3172 H        1 ZINC000015721403    0.4100
62     H62     1.5478    0.7903  -13.9364 H        1 ZINC000015721403    0.0500
63     H63     2.0392   -0.6316  -14.8878 H        1 ZINC000015721403    0.0500
64     H64     1.2214    0.7336  -15.6853 H        1 ZINC000015721403    0.0700
@<TRIPOS>BOND
1     1     2     1
2     1     42    1
3     1     43    1
4     1     44    1
5     2     3     1
6     2     4     1
7     2     8     1
8     4     5     1
9     4     6     1
10    4     7     1
11    8     9     2
12    8     10    am
13    10    11    1
14    10    45    1
15    11    12    1
16    11    13    1
17    11    14    1
18    13    46    1
19    13    47    1
20    13    48    1
21    14    15    2
22    14    16    am
23    16    17    1
24    16    49    1
25    17    18    1
26    17    19    1
27    17    27    1
28    19    20    1
29    19    50    1
30    19    51    1
31    20    26    ar
32    20    21    ar
33    21    22    ar
34    21    52    1
35    22    23    ar
36    22    53    1
37    23    24    1
38    23    25    ar
39    24    54    1
40    25    26    ar
41    25    55    1
42    26    56    1
43    27    28    2
44    27    29    am
45    29    30    1
46    29    57    1
47    30    31    1
48    30    32    1
49    30    33    1
50    32    58    1
51    32    59    1
52    32    60    1
53    33    34    2
54    33    35    am
55    35    36    1
56    35    61    1
57    36    37    1
58    36    38    1
59    36    39    1
60    38    62    1
61    38    63    1
62    38    64    1
63    39    40    ar
64    39    41    ar
@<TRIPOS>SUBSTRUCTURE
1   ZINC000015721403 1     RESIDUE    1   A     ZIN   1

@<TRIPOS>MOLECULE
ZINC000015721403
63    63    1     0     0
SMALL
USER_CHARGES
@<TRIPOS>ATOM
1      C1     -0.0187    1.5258    0.0104 C.3      1 ZINC000015721403   -0.1900
2      C2      0.0021   -0.0041    0.0020 C.3      1 ZINC000015721403    0.0700
3      H3      0.5293   -0.3651    0.8851 H        1 ZINC000015721403    0.1100
4      N4      0.6897   -0.4778   -1.2066 N.3      1 ZINC000015721403   -0.8300
5      C5     -1.4117   -0.5257    0.0127 C.2      1 ZINC000015721403    0.5200
6      O6     -1.8076   -1.2234   -0.8969 O.2      1 ZINC000015721403   -0.5200
7      N7     -2.2363   -0.2169    1.0331 N.am     1 ZINC000015721403   -0.7100
8      C8     -3.6107   -0.7239    1.0435 C.3      1 ZINC000015721403    0.1300
9      H9     -3.9923   -0.7602    0.0232 H        1 ZINC000015721403    0.1100
10     C10    -3.6309   -2.1303    1.6458 C.3      1 ZINC000015721403   -0.1600
11     C11    -4.4769    0.1897    1.8717 C.2      1 ZINC000015721403    0.5200
12     O12    -3.9938    1.1681    2.4011 O.2      1 ZINC000015721403   -0.5200
13     N13    -5.7885   -0.0804    2.0240 N.am     1 ZINC000015721403   -0.7100
14     C14    -6.6306    0.8078    2.8291 C.3      1 ZINC000015721403    0.1400
15     H15    -6.0513    1.1978    3.6660 H        1 ZINC000015721403    0.1200
16     C16    -7.1207    1.9697    1.9627 C.3      1 ZINC000015721403   -0.0900
17     C17    -5.9446    2.8113    1.5390 C.ar     1 ZINC000015721403   -0.0700
18     C18    -5.5330    3.8692    2.3283 C.ar     1 ZINC000015721403   -0.0900
19     C19    -4.4552    4.6422    1.9421 C.ar     1 ZINC000015721403   -0.1400
20     C20    -3.7854    4.3559    0.7614 C.ar     1 ZINC000015721403    0.1000
21     O21    -2.7245    5.1146    0.3795 O.3      1 ZINC000015721403   -0.5000
22     C22    -4.2001    3.2935   -0.0286 C.ar     1 ZINC000015721403   -0.1400
23     C23    -5.2755    2.5206    0.3645 C.ar     1 ZINC000015721403   -0.0900
24     C24    -7.8152    0.0378    3.3537 C.2      1 ZINC000015721403    0.5100
25     O25    -7.9433   -1.1372    3.0818 O.2      1 ZINC000015721403   -0.5300
26     N26    -8.7321    0.6549    4.1249 N.am     1 ZINC000015721403   -0.7000
27     C27    -9.8836   -0.0936    4.6348 C.3      1 ZINC000015721403    0.1300
28     H28   -10.1973   -0.8277    3.8927 H        1 ZINC000015721403    0.1100
29     C29    -9.4932   -0.8112    5.9285 C.3      1 ZINC000015721403   -0.1600
30     C30   -11.0189    0.8581    4.9112 C.2      1 ZINC000015721403    0.5000
31     O31   -10.8799    2.0447    4.7028 O.2      1 ZINC000015721403   -0.5600
32     N32   -12.1888    0.3905    5.3900 N.am     1 ZINC000015721403   -0.6800
33     C33   -13.2925    1.3156    5.6588 C.3      1 ZINC000015721403    0.0700
34     H34   -12.8926    2.2630    6.0202 H        1 ZINC000015721403    0.0800
35     C35   -14.0832    1.5540    4.3708 C.3      1 ZINC000015721403   -0.1400
36     C36   -14.2018    0.7227    6.7040 C.2      1 ZINC000015721403    0.4900
37     O37   -13.9512   -0.3713    7.1804 O.co2    1 ZINC000015721403   -0.6900
38     O38   -15.1881    1.3370    7.0734 O.co2    1 ZINC000015721403   -0.6800
39     H39     1.0039    1.9031    0.0027 H        1 ZINC000015721403    0.0700
40     H40    -0.5459    1.8868   -0.8726 H        1 ZINC000015721403    0.0600
41     H41    -0.5289    1.8773    0.9072 H        1 ZINC000015721403    0.0700
42     H42     0.1845   -0.2106   -2.0382 H        1 ZINC000015721403    0.3500
43     H43     1.6404   -0.1412   -1.2372 H        1 ZINC000015721403    0.3500
44     H44    -1.9197    0.3412    1.7606 H        1 ZINC000015721403    0.4100
45     H45    -3.2492   -2.0940    2.6662 H        1 ZINC000015721403    0.0600
46     H46    -4.6535   -2.5075    1.6536 H        1 ZINC000015721403    0.0800
47     H47    -3.0043   -2.7911    1.0468 H        1 ZINC000015721403    0.0700
48     H48    -6.1749   -0.8629    1.6006 H        1 ZINC000015721403    0.4100
49     H49    -7.6237    1.5770    1.0790 H        1 ZINC000015721403    0.0800
50     H50    -7.8176    2.5814    2.5356 H        1 ZINC000015721403    0.0900
51     H51    -6.0548    4.0917    3.2473 H        1 ZINC000015721403    0.1200
52     H52    -4.1345    5.4689    2.5586 H        1 ZINC000015721403    0.1200
53     H53    -1.8734    4.7946    0.7085 H        1 ZINC000015721403    0.3900
54     H54    -3.6804    3.0689   -0.9483 H        1 ZINC000015721403    0.1200
55     H55    -5.5985    1.6932   -0.2500 H        1 ZINC000015721403    0.1200
56     H56    -8.6296    1.5946    4.3424 H        1 ZINC000015721403    0.4100
57     H57    -8.6720   -1.4995    5.7286 H        1 ZINC000015721403    0.0700
58     H58    -9.1794   -0.0771    6.6707 H        1 ZINC000015721403    0.0600
59     H59   -10.3499   -1.3681    6.3079 H        1 ZINC000015721403    0.0800
60     H60   -12.3000   -0.5586    5.5567 H        1 ZINC000015721403    0.4100
61     H61   -14.9044    2.2423    4.5707 H        1 ZINC000015721403    0.0700
62     H62   -13.4255    1.9828    3.6148 H        1 ZINC000015721403    0.0500
63     H63   -14.4831    0.6066    4.0094 H        1 ZINC000015721403    0.0500
@<TRIPOS>BOND
1     1     2     1
2     1     39    1
3     1     40    1
4     1     41    1
5     2     3     1
6     2     4     1
7     2     5     1
8     4     42    1
9     4     43    1
10    5     6     2
11    5     7     am
12    7     8     1
13    7     44    1
14    8     9     1
15    8     10    1
16    8     11    1
17    10    45    1
18    10    46    1
19    10    47    1
20    11    12    2
21    11    13    am
22    13    14    1
23    13    48    1
24    14    15    1
25    14    16    1
26    14    24    1
27    16    17    1
28    16    49    1
29    16    50    1
30    17    23    ar
31    17    18    ar
32    18    19    ar
33    18    51    1
34    19    20    ar
35    19    52    1
36    20    21    1
37    20    22    ar
38    21    53    1
39    22    23    ar
40    22    54    1
41    23    55    1
42    24    25    2
43    24    26    am
44    26    27    1
45    26    56    1
46    27    28    1
47    27    29    1
48    27    30    1
49    29    57    1
50    29    58    1
51    29    59    1
52    30    31    2
53    30    32    am
54    32    33    1
55    32    60    1
56    33    34    1
57    33    35    1
58    33    36    1
59    35    61    1
60    35    62    1
61    35    63    1
62    36    37    ar
63    36    38    ar
@<TRIPOS>SUBSTRUCTURE
1   ZINC000015721403 1     RESIDUE    1   A     ZIN   1
@<TRIPOS>MOLECULE
ZINC000019330123
54    56    1     0     0
SMALL
USER_CHARGES
@<TRIPOS>ATOM
1      C1      0.9318    2.2309    0.4322 C.3      1 ZINC000019330123   -0.1700
2      C2      0.4754    0.8359    0.0001 C.3      1 ZINC000019330123   -0.0500
3      C3     -1.0521    0.7963   -0.0775 C.3      1 ZINC000019330123   -0.1700
4      C4      1.0735    0.5003   -1.3720 C.3      1 ZINC000019330123   -0.0100
5      N5      0.6171    1.4715   -2.3694 N.pl3    1 ZINC000019330123    0.0000
6      O6      1.2449    2.4995   -2.5502 O.2      1 ZINC000019330123   -0.1400
7      O7     -0.3901    1.2510   -3.0178 O.2      1 ZINC000019330123   -0.1400
8      C8      2.6026    0.5201   -1.2604 C.3      1 ZINC000019330123    0.0500
9      N9      3.0226   -0.4898   -0.2774 N.3      1 ZINC000019330123   -0.5000
10     C10     2.4987   -0.1651    1.0580 C.3      1 ZINC000019330123    0.0500
11     C11     0.9665   -0.2039    1.0148 C.3      1 ZINC000019330123   -0.0100
12     N12     0.4195    0.0921    2.3412 N.pl3    1 ZINC000019330123    0.0000
13     O13     1.1704    0.3211    3.2725 O.2      1 ZINC000019330123   -0.1500
14     O14    -0.7863    0.1090    2.5128 O.2      1 ZINC000019330123   -0.1400
15     C15     0.5247   -1.5958    0.5475 C.3      1 ZINC000019330123    0.0500
16     N16     1.1200   -1.8688   -0.7695 N.3      1 ZINC000019330123   -0.4800
17     C17     0.6275   -0.9114   -1.7712 C.3      1 ZINC000019330123    0.0500
18     C18     2.5878   -1.8317   -0.6921 C.3      1 ZINC000019330123    0.1900
19     C19     3.1793   -2.1580   -2.0649 C.3      1 ZINC000019330123    0.0900
20     H20     2.7766   -1.4688   -2.8072 H        1 ZINC000019330123    0.1000
21     O21     4.6013   -2.0261   -2.0144 O.3      1 ZINC000019330123   -0.5300
22     C22     2.8136   -3.5929   -2.4498 C.3      1 ZINC000019330123    0.0600
23     H23     3.1957   -4.2802   -1.6950 H        1 ZINC000019330123    0.1200
24     O24     1.3923   -3.7167   -2.5311 O.3      1 ZINC000019330123   -0.5200
25     C25     3.4333   -3.9305   -3.8074 C.3      1 ZINC000019330123    0.0500
26     H26     4.5200   -3.9227   -3.7227 H        1 ZINC000019330123    0.1200
27     O27     3.0238   -2.9596   -4.7726 O.3      1 ZINC000019330123   -0.5400
28     C28     2.9662   -5.3185   -4.2503 C.3      1 ZINC000019330123    0.0900
29     H29     1.8796   -5.3263   -4.3349 H        1 ZINC000019330123    0.1100
30     O30     3.3758   -6.2893   -3.2850 O.3      1 ZINC000019330123   -0.5400
31     C31     3.5860   -5.6560   -5.6078 C.3      1 ZINC000019330123    0.0400
32     O32     3.0598   -6.8995   -6.0756 O.3      1 ZINC000019330123   -0.5600
33     H33     2.0204    2.2582    0.4805 H        1 ZINC000019330123    0.0800
34     H34     0.5815    2.9678   -0.2905 H        1 ZINC000019330123    0.0900
35     H35     0.5186    2.4603    1.4144 H        1 ZINC000019330123    0.0800
36     H36    -1.3913    1.4376   -0.8910 H        1 ZINC000019330123    0.0800
37     H37    -1.3803   -0.2269   -0.2605 H        1 ZINC000019330123    0.0800
38     H38    -1.4731    1.1501    0.8637 H        1 ZINC000019330123    0.1000
39     H39     3.0423    0.2898   -2.2308 H        1 ZINC000019330123    0.1100
40     H40     2.9319    1.5064   -0.9336 H        1 ZINC000019330123    0.1200
41     H41     2.8620   -0.8963    1.7802 H        1 ZINC000019330123    0.1200
42     H42     2.8304    0.8320    1.3476 H        1 ZINC000019330123    0.1100
43     H43     0.8627   -2.3453    1.2631 H        1 ZINC000019330123    0.1100
44     H44    -0.5621   -1.6268    0.4702 H        1 ZINC000019330123    0.1200
45     H45    -0.4610   -0.9526   -1.8112 H        1 ZINC000019330123    0.1200
46     H46     1.0398   -1.1615   -2.7487 H        1 ZINC000019330123    0.1000
47     H47     2.9319   -2.5663    0.0358 H        1 ZINC000019330123    0.1200
48     H48     5.0214   -2.5581   -1.3248 H        1 ZINC000019330123    0.3800
49     H49     0.9920   -3.1961   -3.2408 H        1 ZINC000019330123    0.3600
50     H50     2.0665   -2.9112   -4.9001 H        1 ZINC000019330123    0.3700
51     H51     4.3331   -6.3377   -3.1575 H        1 ZINC000019330123    0.3700
52     H52     3.3468   -4.8684   -6.3223 H        1 ZINC000019330123    0.0600
53     H53     4.6681   -5.7356   -5.5035 H        1 ZINC000019330123    0.0500
54     H54     3.4095   -7.1767   -6.9335 H        1 ZINC000019330123    0.3800
@<TRIPOS>BOND
1     1     2     1
2     1     33    1
3     1     34    1
4     1     35    1
5     2     11    1
6     2     3     1
7     2     4     1
8     3     36    1
9     3     37    1
10    3     38    1
11    4     17    1
12    4     5     1
13    4     8     1
14    5     6     2
15    5     7     2
16    8     9     1
17    8     39    1
18    8     40    1
19    9     18    1
20    9     10    1
21    10    11    1
22    10    41    1
23    10    42    1
24    11    12    1
25    11    15    1
26    12    13    2
27    12    14    2
28    15    16    1
29    15    43    1
30    15    44    1
31    16    17    1
32    16    18    1
33    17    45    1
34    17    46    1
35    18    19    1
36    18    47    1
37    19    20    1
38    19    21    1
39    19    22    1
40    21    48    1
41    22    23    1
42    22    24    1
43    22    25    1
44    24    49    1
45    25    26    1
46    25    27    1
47    25    28    1
48    27    50    1
49    28    29    1
50    28    30    1
51    28    31    1
52    30    51    1
53    31    32    1
54    31    52    1
55    31    53    1
56    32    54    1
@<TRIPOS>SUBSTRUCTURE
1   ZINC000019330123 1     RESIDUE    1   A     ZIN   1
@<TRIPOS>MOLECULE
ZINC000072308694
  58   59    0    0    0
SMALL
USER_CHARGES
NO_NAME
@<TRIPOS>ATOM
    1 N1       -0.0162     1.3436     0.0094 N.am   1 <0>      -0.8500
    2 C2        0.0021    -0.0041     0.0020 C.2    1 <0>       0.6900
    3 O3        1.0627    -0.5974    -0.0113 O.2    1 <0>      -0.5300
    4 N4       -1.1558    -0.6938     0.0094 N.am   1 <0>      -0.6900
    5 C5       -1.1375    -2.0414     0.0020 C.2    1 <0>       0.5200
    6 O6       -0.0795    -2.6332    -0.0113 O.2    1 <0>      -0.4600
    7 C7       -2.4322    -2.8126     0.0102 C.3    1 <0>      -0.1400
    8 C8       -2.1323    -4.3128    -0.0007 C.3    1 <0>       0.0600
    9 N9       -3.3944    -5.0646     0.0073 N.3    1 <0>      -0.5300
   10 C10      -4.1407    -4.8542    -1.2414 C.3    1 <0>       0.0200
   11 C11      -5.4721    -5.6051    -1.1689 C.3    1 <0>      -0.0100
   12 N12      -5.2172    -7.0372    -0.9658 N.4    1 <0>      -0.3900
   13 H13      -4.6621    -7.3915    -1.7303 H      1 <0>       0.4200
   14 C14      -6.4954    -7.7592    -0.9135 C.3    1 <0>       0.0000
   15 C15      -7.1928    -7.6607    -2.2718 C.3    1 <0>      -0.1700
   16 C16      -8.5041    -8.4014    -2.2181 C.2    1 <0>       0.5300
   17 O17      -8.8470    -8.9535    -1.1947 O.2    1 <0>      -0.4600
   18 N18      -9.2957    -8.4500    -3.3078 N.am   1 <0>      -0.6900
   19 C19     -10.4685    -9.1125    -3.2598 C.2    1 <0>       0.7000
   20 N20     -11.2600    -9.1611    -4.3495 N.am   1 <0>      -0.8500
   21 O21     -10.8122    -9.6660    -2.2338 O.2    1 <0>      -0.5300
   22 C22      -4.4928    -7.2331     0.2969 C.3    1 <0>       0.0000
   23 C23      -3.1532    -6.4961     0.2355 C.3    1 <0>       0.1000
   24 C24      -2.3126    -7.0605    -0.9114 C.3    1 <0>      -0.1700
   25 C25      -2.0629    -8.5514    -0.6746 C.3    1 <0>      -0.1200
   26 C26      -1.3150    -8.7394     0.6469 C.3    1 <0>      -0.1300
   27 C27      -2.1557    -8.1748     1.7938 C.3    1 <0>      -0.1300
   28 C28      -2.4059    -6.6840     1.5570 C.3    1 <0>      -0.1100
   29 H29       0.8172     1.8399     0.0041 H      1 <0>       0.4200
   30 H30      -0.8627     1.8171     0.0160 H      1 <0>       0.4000
   31 H31      -2.0023    -0.2203     0.0200 H      1 <0>       0.4100
   32 H32      -2.9988    -2.5618     0.9070 H      1 <0>       0.1100
   33 H33      -3.0158    -2.5523    -0.8729 H      1 <0>       0.1000
   34 H34      -1.5657    -4.5636    -0.8975 H      1 <0>       0.0600
   35 H35      -1.5488    -4.5731     0.8823 H      1 <0>       0.1000
   36 H36      -4.3305    -3.7894    -1.3767 H      1 <0>       0.1300
   37 H37      -3.5568    -5.2296    -2.0818 H      1 <0>       0.0700
   38 H38      -6.0617    -5.2196    -0.3370 H      1 <0>       0.1400
   39 H39      -6.0209    -5.4622    -2.0998 H      1 <0>       0.1400
   40 H40      -6.3115    -8.8067    -0.6747 H      1 <0>       0.1400
   41 H41      -7.1310    -7.3177    -0.1459 H      1 <0>       0.1400
   42 H42      -7.3767    -6.6132    -2.5106 H      1 <0>       0.1200
   43 H43      -6.5573    -8.1022    -3.0394 H      1 <0>       0.1200
   44 H44      -9.0214    -8.0083    -4.1266 H      1 <0>       0.4100
   45 H45     -10.9857    -8.7193    -5.1684 H      1 <0>       0.4000
   46 H46     -12.1041    -9.6379    -4.3150 H      1 <0>       0.4300
   47 H47      -5.0868    -6.8392     1.1215 H      1 <0>       0.1400
   48 H48      -4.3153    -8.2972     0.4527 H      1 <0>       0.1400
   49 H49      -2.8455    -6.9264    -1.8527 H      1 <0>       0.0600
   50 H50      -1.3588    -6.5349    -0.9557 H      1 <0>       0.1000
   51 H51      -3.0168    -9.0770    -0.6303 H      1 <0>       0.0600
   52 H52      -1.4639    -8.9537    -1.4916 H      1 <0>       0.0800
   53 H53      -1.1369    -9.8014     0.8156 H      1 <0>       0.0700
   54 H54      -0.3613    -8.2136     0.6025 H      1 <0>       0.0700
   55 H55      -3.1094    -8.7007     1.8383 H      1 <0>       0.0600
   56 H56      -1.6226    -8.3087     2.7351 H      1 <0>       0.0800
   57 H57      -1.4523    -6.1580     1.5131 H      1 <0>       0.0900
   58 H58      -3.0054    -6.2819     2.3738 H      1 <0>       0.0900
@<TRIPOS>BOND
   1    1    2 am
   2    1   29 1
   3    1   30 1
   4    2    3 2
   5    2    4 am
   6    4    5 am
   7    4   31 1
   8    5    6 2
   9    5    7 1
  10    7    8 1
  11    7   32 1
  12    7   33 1
  13    8    9 1
  14    8   34 1
  15    8   35 1
  16    9   23 1
  17    9   10 1
  18   10   11 1
  19   10   36 1
  20   10   37 1
  21   11   12 1
  22   11   38 1
  23   11   39 1
  24   12   13 1
  25   12   14 1
  26   12   22 1
  27   14   15 1
  28   14   40 1
  29   14   41 1
  30   15   16 1
  31   15   42 1
  32   15   43 1
  33   16   17 2
  34   16   18 am
  35   18   19 am
  36   18   44 1
  37   19   20 am
  38   19   21 2
  39   20   45 1
  40   20   46 1
  41   22   23 1
  42   22   47 1
  43   22   48 1
  44   23   28 1
  45   23   24 1
  46   24   25 1
  47   24   49 1
  48   24   50 1
  49   25   26 1
  50   25   51 1
  51   25   52 1
  52   26   27 1
  53   26   53 1
  54   26   54 1
  55   27   28 1
  56   27   55 1
  57   27   56 1
  58   28   57 1
  59   28   58 1

@<TRIPOS>MOLECULE
ZINC000072308694
  58   59    0    0    0
SMALL
USER_CHARGES
NO_NAME
@<TRIPOS>ATOM
    1 N1       -0.0162     1.3436     0.0094 N.am   1 <0>      -0.8500
    2 C2        0.0021    -0.0041     0.0020 C.2    1 <0>       0.6900
    3 O3        1.0627    -0.5974    -0.0113 O.2    1 <0>      -0.5300
    4 N4       -1.1558    -0.6938     0.0094 N.am   1 <0>      -0.6900
    5 C5       -1.1375    -2.0414     0.0020 C.2    1 <0>       0.5200
    6 O6       -0.0795    -2.6332    -0.0113 O.2    1 <0>      -0.4600
    7 C7       -2.4322    -2.8126     0.0102 C.3    1 <0>      -0.1400
    8 C8       -2.1323    -4.3128    -0.0007 C.3    1 <0>       0.0700
    9 N9       -3.3944    -5.0646     0.0073 N.3    1 <0>      -0.5300
   10 C10      -4.3224    -4.5252     1.0113 C.3    1 <0>       0.0200
   11 C11      -5.6432    -5.2952     0.9458 C.3    1 <0>      -0.0100
   12 N12      -5.3930    -6.7198     1.2010 N.4    1 <0>      -0.3800
   13 H13      -4.9741    -6.8295     2.1123 H      1 <0>       0.4200
   14 C14      -6.6636    -7.4557     1.1549 C.3    1 <0>      -0.0100
   15 C15      -7.5640    -6.9909     2.3013 C.3    1 <0>      -0.1700
   16 C16      -8.8675    -7.7458     2.2540 C.2    1 <0>       0.5300
   17 O17      -9.0575    -8.5736     1.3889 O.2    1 <0>      -0.4500
   18 N18      -9.8219    -7.5006     3.1734 N.am   1 <0>      -0.6900
   19 C19     -10.9877    -8.1757     3.1311 C.2    1 <0>       0.7000
   20 N20     -11.9421    -7.9305     4.0505 N.am   1 <0>      -0.8500
   21 O21     -11.1782    -9.0056     2.2639 O.2    1 <0>      -0.5200
   22 C22      -4.4834    -7.2506     0.1773 C.3    1 <0>       0.0700
   23 C23      -4.2364    -8.7384     0.4359 C.3    1 <0>      -0.1400
   24 C24      -3.2862    -9.2896    -0.6291 C.3    1 <0>      -0.1200
   25 C25      -3.9127    -9.1099    -2.0134 C.3    1 <0>      -0.1300
   26 C26      -4.1613    -7.6226    -2.2720 C.3    1 <0>      -0.1100
   27 C27      -5.1109    -7.0712    -1.2065 C.3    1 <0>      -0.1300
   28 C28      -3.1532    -6.4963     0.2356 C.3    1 <0>       0.0400
   29 H29       0.8172     1.8399     0.0041 H      1 <0>       0.4200
   30 H30      -0.8627     1.8171     0.0160 H      1 <0>       0.4000
   31 H31      -2.0023    -0.2203     0.0200 H      1 <0>       0.4100
   32 H32      -2.9988    -2.5618     0.9070 H      1 <0>       0.1000
   33 H33      -3.0158    -2.5523    -0.8729 H      1 <0>       0.1200
   34 H34      -1.5657    -4.5636    -0.8975 H      1 <0>       0.1000
   35 H35      -1.5488    -4.5731     0.8823 H      1 <0>       0.0600
   36 H36      -3.8869    -4.6338     2.0046 H      1 <0>       0.0600
   37 H37      -4.5058    -3.4702     0.8075 H      1 <0>       0.1300
   38 H38      -6.3283    -4.9060     1.6989 H      1 <0>       0.1400
   39 H39      -6.0849    -5.1754    -0.0435 H      1 <0>       0.1400
   40 H40      -7.1596    -7.2650     0.2031 H      1 <0>       0.1400
   41 H41      -6.4690    -8.5234     1.2557 H      1 <0>       0.1500
   42 H42      -7.0680    -7.1816     3.2530 H      1 <0>       0.1200
   43 H43      -7.7586    -5.9232     2.2005 H      1 <0>       0.1200
   44 H44      -9.6699    -6.8382     3.8656 H      1 <0>       0.4100
   45 H45     -11.7901    -7.2681     4.7427 H      1 <0>       0.4000
   46 H46     -12.7811    -8.4163     4.0201 H      1 <0>       0.4300
   47 H47      -3.7905    -8.8666     1.4222 H      1 <0>       0.0900
   48 H48      -5.1830    -9.2769     0.3921 H      1 <0>       0.0900
   49 H49      -2.3398    -8.7505    -0.5858 H      1 <0>       0.0700
   50 H50      -3.1095   -10.3493    -0.4450 H      1 <0>       0.0900
   51 H51      -3.2358    -9.5024    -2.7722 H      1 <0>       0.0800
   52 H52      -4.8589    -9.6493    -2.0567 H      1 <0>       0.0700
   53 H53      -3.2150    -7.0833    -2.2295 H      1 <0>       0.0800
   54 H54      -4.6082    -7.4950    -3.2580 H      1 <0>       0.0800
   55 H55      -6.0572    -7.6103    -1.2491 H      1 <0>       0.0800
   56 H56      -5.2877    -6.0115    -1.3907 H      1 <0>       0.1000
   57 H57      -2.4837    -6.8796    -0.5345 H      1 <0>       0.1300
   58 H58      -2.6982    -6.6366     1.2161 H      1 <0>       0.0600
@<TRIPOS>BOND
   1    1    2 am
   2    1   29 1
   3    1   30 1
   4    2    3 2
   5    2    4 am
   6    4    5 am
   7    4   31 1
   8    5    6 2
   9    5    7 1
  10    7    8 1
  11    7   32 1
  12    7   33 1
  13    8    9 1
  14    8   34 1
  15    8   35 1
  16    9   28 1
  17    9   10 1
  18   10   11 1
  19   10   36 1
  20   10   37 1
  21   11   12 1
  22   11   38 1
  23   11   39 1
  24   12   13 1
  25   12   14 1
  26   12   22 1
  27   14   15 1
  28   14   40 1
  29   14   41 1
  30   15   16 1
  31   15   42 1
  32   15   43 1
  33   16   17 2
  34   16   18 am
  35   18   19 am
  36   18   44 1
  37   19   20 am
  38   19   21 2
  39   20   45 1
  40   20   46 1
  41   22   27 1
  42   22   23 1
  43   22   28 1
  44   23   24 1
  45   23   47 1
  46   23   48 1
  47   24   25 1
  48   24   49 1
  49   24   50 1
  50   25   26 1
  51   25   51 1
  52   25   52 1
  53   26   27 1
  54   26   53 1
  55   26   54 1
  56   27   55 1
  57   27   56 1
  58   28   57 1
  59   28   58 1

@<TRIPOS>MOLECULE
ZINC000072308694
  58   59    0    0    0
SMALL
USER_CHARGES
NO_NAME
@<TRIPOS>ATOM
    1 N1       -0.0162     1.3436     0.0094 N.am   1 <0>      -0.8500
    2 C2        0.0021    -0.0041     0.0020 C.2    1 <0>       0.6900
    3 O3        1.0627    -0.5974    -0.0113 O.2    1 <0>      -0.5300
    4 N4       -1.1558    -0.6938     0.0094 N.am   1 <0>      -0.6900
    5 C5       -1.1375    -2.0414     0.0020 C.2    1 <0>       0.5200
    6 O6       -0.0795    -2.6332    -0.0113 O.2    1 <0>      -0.4600
    7 C7       -2.4322    -2.8126     0.0102 C.3    1 <0>      -0.1400
    8 C8       -2.1323    -4.3128    -0.0007 C.3    1 <0>       0.0700
    9 N9       -3.3944    -5.0646     0.0073 N.3    1 <0>      -0.5300
   10 C10      -4.1409    -4.8538    -1.2411 C.3    1 <0>       0.0200
   11 C11      -5.4730    -5.6035    -1.1676 C.3    1 <0>      -0.0100
   12 N12      -5.2185    -7.0359    -0.9653 N.4    1 <0>      -0.3800
   13 H13      -4.6645    -7.3901    -1.7305 H      1 <0>       0.4200
   14 C14      -6.4971    -7.7572    -0.9120 C.3    1 <0>       0.0000
   15 C15      -7.1958    -7.6578    -2.2695 C.3    1 <0>      -0.1700
   16 C16      -8.5074    -8.3978    -2.2148 C.2    1 <0>       0.5300
   17 O17      -8.8496    -8.9501    -1.1913 O.2    1 <0>      -0.4600
   18 N18      -9.3001    -8.4456    -3.3038 N.am   1 <0>      -0.6900
   19 C19     -10.4732    -9.1074    -3.2549 C.2    1 <0>       0.7000
   20 N20     -11.2658    -9.1552    -4.3439 N.am   1 <0>      -0.8500
   21 O21     -10.8162    -9.6611    -2.2288 O.2    1 <0>      -0.5300
   22 C22      -4.4930    -7.2332     0.2964 C.3    1 <0>       0.0700
   23 C23      -5.3254    -6.6825     1.4560 C.3    1 <0>      -0.1300
   24 C24      -4.5673    -6.8867     2.7693 C.3    1 <0>      -0.1100
   25 C25      -4.3155    -8.3802     2.9861 C.3    1 <0>      -0.1300
   26 C26      -3.4842    -8.9314     1.8260 C.3    1 <0>      -0.1200
   27 C27      -4.2428    -8.7271     0.5130 C.3    1 <0>      -0.1400
   28 C28      -3.1532    -6.4963     0.2356 C.3    1 <0>       0.0400
   29 H29       0.8172     1.8399     0.0041 H      1 <0>       0.4200
   30 H30      -0.8627     1.8171     0.0160 H      1 <0>       0.4000
   31 H31      -2.0023    -0.2203     0.0200 H      1 <0>       0.4100
   32 H32      -2.9988    -2.5618     0.9070 H      1 <0>       0.1100
   33 H33      -3.0158    -2.5523    -0.8729 H      1 <0>       0.1000
   34 H34      -1.5657    -4.5636    -0.8975 H      1 <0>       0.0600
   35 H35      -1.5488    -4.5731     0.8823 H      1 <0>       0.1000
   36 H36      -4.3299    -3.7889    -1.3765 H      1 <0>       0.1300
   37 H37      -3.5577    -5.2299    -2.0816 H      1 <0>       0.0600
   38 H38      -6.0614    -5.2179    -0.3350 H      1 <0>       0.1400
   39 H39      -6.0225    -5.4600    -2.0979 H      1 <0>       0.1400
   40 H40      -6.3136    -8.8049    -0.6737 H      1 <0>       0.1500
   41 H41      -7.1317    -7.3156    -0.1436 H      1 <0>       0.1400
   42 H42      -7.3793    -6.6101    -2.5078 H      1 <0>       0.1200
   43 H43      -6.5612    -8.0994    -3.0379 H      1 <0>       0.1200
   44 H44      -9.0263    -8.0037    -4.1228 H      1 <0>       0.4100
   45 H45     -10.9920    -8.7133    -5.1628 H      1 <0>       0.4000
   46 H46     -12.1101    -9.6315    -4.3087 H      1 <0>       0.4300
   47 H47      -5.5046    -5.6185     1.3015 H      1 <0>       0.1000
   48 H48      -6.2787    -7.2089     1.5011 H      1 <0>       0.0800
   49 H49      -3.6139    -6.3603     2.7241 H      1 <0>       0.0800
   50 H50      -5.1600    -6.4944     3.5957 H      1 <0>       0.0800
   51 H51      -3.7751    -8.5254     3.9214 H      1 <0>       0.0800
   52 H52      -5.2690    -8.9064     3.0320 H      1 <0>       0.0700
   53 H53      -2.5306    -8.4056     1.7803 H      1 <0>       0.0700
   54 H54      -3.3055    -9.9955     1.9805 H      1 <0>       0.0900
   55 H55      -5.1967    -9.2525     0.5588 H      1 <0>       0.0900
   56 H56      -3.6508    -9.1200    -0.3137 H      1 <0>       0.0900
   57 H57      -2.5535    -6.8987    -0.5809 H      1 <0>       0.0600
   58 H58      -2.6216    -6.6298     1.1777 H      1 <0>       0.1300
@<TRIPOS>BOND
   1    1    2 am
   2    1   29 1
   3    1   30 1
   4    2    3 2
   5    2    4 am
   6    4    5 am
   7    4   31 1
   8    5    6 2
   9    5    7 1
  10    7    8 1
  11    7   32 1
  12    7   33 1
  13    8    9 1
  14    8   34 1
  15    8   35 1
  16    9   28 1
  17    9   10 1
  18   10   11 1
  19   10   36 1
  20   10   37 1
  21   11   12 1
  22   11   38 1
  23   11   39 1
  24   12   13 1
  25   12   14 1
  26   12   22 1
  27   14   15 1
  28   14   40 1
  29   14   41 1
  30   15   16 1
  31   15   42 1
  32   15   43 1
  33   16   17 2
  34   16   18 am
  35   18   19 am
  36   18   44 1
  37   19   20 am
  38   19   21 2
  39   20   45 1
  40   20   46 1
  41   22   27 1
  42   22   23 1
  43   22   28 1
  44   23   24 1
  45   23   47 1
  46   23   48 1
  47   24   25 1
  48   24   49 1
  49   24   50 1
  50   25   26 1
  51   25   51 1
  52   25   52 1
  53   26   27 1
  54   26   53 1
  55   26   54 1
  56   27   55 1
  57   27   56 1
  58   28   57 1
  59   28   58 1

@<TRIPOS>MOLECULE
ZINC000072308694
  58   59    0    0    0
SMALL
USER_CHARGES
NO_NAME
@<TRIPOS>ATOM
    1 N1       -0.0162     1.3436     0.0094 N.am   1 <0>      -0.8500
    2 C2        0.0021    -0.0041     0.0020 C.2    1 <0>       0.6900
    3 O3        1.0627    -0.5974    -0.0113 O.2    1 <0>      -0.5300
    4 N4       -1.1558    -0.6938     0.0094 N.am   1 <0>      -0.6900
    5 C5       -1.1375    -2.0414     0.0020 C.2    1 <0>       0.5200
    6 O6       -0.0795    -2.6332    -0.0113 O.2    1 <0>      -0.4600
    7 C7       -2.4322    -2.8126     0.0102 C.3    1 <0>      -0.1500
    8 C8       -2.1323    -4.3128    -0.0007 C.3    1 <0>       0.0600
    9 N9       -3.3944    -5.0646     0.0073 N.3    1 <0>      -0.5200
   10 C10      -4.3222    -4.5255     1.0117 C.3    1 <0>       0.0100
   11 C11      -5.6426    -5.2963     0.9476 C.3    1 <0>      -0.0100
   12 N12      -5.3918    -6.7209     1.2022 N.4    1 <0>      -0.3900
   13 H13      -4.9716    -6.8308     2.1129 H      1 <0>       0.4200
   14 C14      -6.6622    -7.4572     1.1573 C.3    1 <0>       0.0000
   15 C15      -7.5614    -6.9930     2.3049 C.3    1 <0>      -0.1700
   16 C16      -8.8647    -7.7483     2.2589 C.2    1 <0>       0.5300
   17 O17      -9.0554    -8.5760     1.3938 O.2    1 <0>      -0.4500
   18 N18      -9.8182    -7.5036     3.1795 N.am   1 <0>      -0.6900
   19 C19     -10.9837    -8.1791     3.1384 C.2    1 <0>       0.7000
   20 N20     -11.9372    -7.9344     4.0590 N.am   1 <0>      -0.8500
   21 O21     -11.1749    -9.0088     2.2711 O.2    1 <0>      -0.5200
   22 C22      -4.4831    -7.2507     0.1768 C.3    1 <0>       0.0000
   23 C23      -3.1532    -6.4961     0.2355 C.3    1 <0>       0.1000
   24 C24      -2.2126    -7.0343    -0.8441 C.3    1 <0>      -0.1100
   25 C25      -1.9628    -8.5249    -0.6057 C.3    1 <0>      -0.1300
   26 C26      -1.3254    -8.7214     0.7712 C.3    1 <0>      -0.1300
   27 C27      -2.2664    -8.1830     1.8508 C.3    1 <0>      -0.1200
   28 C28      -2.5158    -6.6924     1.6124 C.3    1 <0>      -0.1700
   29 H29       0.8172     1.8399     0.0041 H      1 <0>       0.4200
   30 H30      -0.8627     1.8171     0.0160 H      1 <0>       0.4000
   31 H31      -2.0023    -0.2203     0.0200 H      1 <0>       0.4100
   32 H32      -2.9988    -2.5618     0.9070 H      1 <0>       0.1000
   33 H33      -3.0158    -2.5523    -0.8729 H      1 <0>       0.1200
   34 H34      -1.5657    -4.5636    -0.8975 H      1 <0>       0.1000
   35 H35      -1.5488    -4.5731     0.8823 H      1 <0>       0.0600
   36 H36      -3.8860    -4.6334     2.0048 H      1 <0>       0.0700
   37 H37      -4.5065    -3.4708     0.8077 H      1 <0>       0.1300
   38 H38      -6.3271    -4.9076     1.7016 H      1 <0>       0.1400
   39 H39      -6.0855    -5.1764    -0.0411 H      1 <0>       0.1400
   40 H40      -7.1593    -7.2664     0.2062 H      1 <0>       0.1400
   41 H41      -6.4671    -8.5249     1.2576 H      1 <0>       0.1400
   42 H42      -7.0643    -7.1837     3.2560 H      1 <0>       0.1200
   43 H43      -7.7565    -5.9253     2.2046 H      1 <0>       0.1200
   44 H44      -9.6655    -6.8414     3.8716 H      1 <0>       0.4100
   45 H45     -11.7846    -7.2722     4.7511 H      1 <0>       0.4000
   46 H46     -12.7761    -8.4206     4.0294 H      1 <0>       0.4300
   47 H47      -4.3077    -8.3109     0.3594 H      1 <0>       0.1400
   48 H48      -4.9314    -7.1208    -0.8082 H      1 <0>       0.1400
   49 H49      -2.6673    -6.8944    -1.8248 H      1 <0>       0.0900
   50 H50      -1.2658    -6.4959    -0.8024 H      1 <0>       0.0900
   51 H51      -2.9096    -9.0633    -0.6480 H      1 <0>       0.0600
   52 H52      -1.2921    -8.9084    -1.3746 H      1 <0>       0.0800
   53 H53      -1.1475    -9.7833     0.9410 H      1 <0>       0.0700
   54 H54      -0.3784    -8.1832     0.8134 H      1 <0>       0.0700
   55 H55      -3.2133    -8.7211     1.8087 H      1 <0>       0.0600
   56 H56      -1.8120    -8.3231     2.8316 H      1 <0>       0.0800
   57 H57      -1.5689    -6.1542     1.6545 H      1 <0>       0.1000
   58 H58      -3.1864    -6.3086     2.3813 H      1 <0>       0.0600
@<TRIPOS>BOND
   1    1    2 am
   2    1   29 1
   3    1   30 1
   4    2    3 2
   5    2    4 am
   6    4    5 am
   7    4   31 1
   8    5    6 2
   9    5    7 1
  10    7    8 1
  11    7   32 1
  12    7   33 1
  13    8    9 1
  14    8   34 1
  15    8   35 1
  16    9   23 1
  17    9   10 1
  18   10   11 1
  19   10   36 1
  20   10   37 1
  21   11   12 1
  22   11   38 1
  23   11   39 1
  24   12   13 1
  25   12   14 1
  26   12   22 1
  27   14   15 1
  28   14   40 1
  29   14   41 1
  30   15   16 1
  31   15   42 1
  32   15   43 1
  33   16   17 2
  34   16   18 am
  35   18   19 am
  36   18   44 1
  37   19   20 am
  38   19   21 2
  39   20   45 1
  40   20   46 1
  41   22   23 1
  42   22   47 1
  43   22   48 1
  44   23   28 1
  45   23   24 1
  46   24   25 1
  47   24   49 1
  48   24   50 1
  49   25   26 1
  50   25   51 1
  51   25   52 1
  52   26   27 1
  53   26   53 1
  54   26   54 1
  55   27   28 1
  56   27   55 1
  57   27   56 1
  58   28   57 1
  59   28   58 1

@<TRIPOS>MOLECULE
ZINC000072308694
  57   58    0    0    0
SMALL
USER_CHARGES
NO_NAME
@<TRIPOS>ATOM
    1 N1        1.4086     0.1649    -0.2552 N.am   1 <0>      -0.8600
    2 C2        1.2118    -1.1664    -0.3289 C.2    1 <0>       0.6900
    3 O3        2.1583    -1.9130    -0.4838 O.2    1 <0>      -0.5300
    4 N4       -0.0345    -1.6698    -0.2308 N.am   1 <0>      -0.6900
    5 C5       -0.2314    -3.0011    -0.3044 C.2    1 <0>       0.5200
    6 O6        0.7127    -3.7458    -0.4589 O.2    1 <0>      -0.4600
    7 C7       -1.6250    -3.5639    -0.1947 C.3    1 <0>      -0.1300
    8 C8       -1.5697    -5.0887    -0.3092 C.3    1 <0>       0.0700
    9 N9       -2.9281    -5.6373    -0.2023 N.3    1 <0>      -0.5400
   10 C10      -3.7513    -5.2331    -1.3506 C.3    1 <0>       0.0500
   11 C11      -5.1770    -5.7569    -1.1626 C.3    1 <0>       0.0500
   12 N12      -5.1449    -7.2202    -1.0306 N.3    1 <0>      -0.5300
   13 C13      -6.5033    -7.7691    -0.9238 C.3    1 <0>       0.0600
   14 C14      -7.2661    -7.4990    -2.2223 C.3    1 <0>      -0.1400
   15 C15      -8.6136    -8.1710    -2.1624 C.2    1 <0>       0.5200
   16 O16      -8.9324    -8.8034    -1.1784 O.2    1 <0>      -0.4600
   17 N17      -9.4644    -8.0689    -3.2027 N.am   1 <0>      -0.6900
   18 C18     -10.6696    -8.6699    -3.1491 C.2    1 <0>       0.6900
   19 N19     -11.5204    -8.5678    -4.1894 N.am   1 <0>      -0.8600
   20 O20     -10.9891    -9.3039    -2.1627 O.2    1 <0>      -0.5300
   21 C21      -4.3218    -7.6244     0.1176 C.3    1 <0>       0.1200
   22 C22      -4.9156    -7.0406     1.4010 C.3    1 <0>      -0.1400
   23 C23      -4.0604    -7.4627     2.5974 C.3    1 <0>      -0.1100
   24 C24      -4.0373    -8.9894     2.6944 C.3    1 <0>      -0.1200
   25 C25      -3.4416    -9.5725     1.4113 C.3    1 <0>      -0.1200
   26 C26      -4.2965    -9.1509     0.2146 C.3    1 <0>      -0.1100
   27 C27      -2.8962    -7.1006    -0.0697 C.3    1 <0>       0.0700
   28 H28       2.3056     0.5272    -0.3258 H      1 <0>       0.4200
   29 H29       0.6528     0.7610    -0.1356 H      1 <0>       0.4000
   30 H30      -0.7899    -1.0740    -0.1071 H      1 <0>       0.4100
   31 H31      -2.0538    -3.2872     0.7685 H      1 <0>       0.1100
   32 H32      -2.2436    -3.1615    -0.9969 H      1 <0>       0.1000
   33 H33      -1.1408    -5.3653    -1.2724 H      1 <0>       0.0500
   34 H34      -0.9511    -5.4911     0.4930 H      1 <0>       0.0900
   35 H35      -3.7697    -4.1455    -1.4199 H      1 <0>       0.0800
   36 H36      -3.3287    -5.6490    -2.2652 H      1 <0>       0.0400
   37 H37      -5.6093    -5.3199    -0.2625 H      1 <0>       0.0500
   38 H38      -5.7820    -5.4829    -2.0270 H      1 <0>       0.0800
   39 H39      -6.4483    -8.8440    -0.7516 H      1 <0>       0.0900
   40 H40      -7.0228    -7.2939    -0.0917 H      1 <0>       0.0500
   41 H41      -7.4011    -6.4246    -2.3476 H      1 <0>       0.1000
   42 H42      -6.6999    -7.8948    -3.0654 H      1 <0>       0.1100
   43 H43      -9.2094    -7.5629    -3.9900 H      1 <0>       0.4100
   44 H44     -11.2653    -8.0618    -4.9767 H      1 <0>       0.4000
   45 H45     -12.3877    -9.0003    -4.1509 H      1 <0>       0.4200
   46 H46      -4.9317    -5.9529     1.3317 H      1 <0>       0.0800
   47 H47      -5.9322    -7.4113     1.5323 H      1 <0>       0.0600
   48 H48      -3.0440    -7.0915     2.4664 H      1 <0>       0.0700
   49 H49      -4.4841    -7.0469     3.5116 H      1 <0>       0.0600
   50 H50      -3.4286    -9.2902     3.5470 H      1 <0>       0.0600
   51 H51      -5.0538    -9.3607     2.8245 H      1 <0>       0.0600
   52 H52      -2.4253    -9.2006     1.2808 H      1 <0>       0.0600
   53 H53      -3.4244   -10.6602     1.4803 H      1 <0>       0.0600
   54 H54      -5.3125    -9.5235     0.3447 H      1 <0>       0.0700
   55 H55      -3.8718    -9.5659    -0.6995 H      1 <0>       0.0700
   56 H56      -2.4634    -7.5379    -0.9694 H      1 <0>       0.0400
   57 H57      -2.2917    -7.3743     0.7950 H      1 <0>       0.0900
@<TRIPOS>BOND
   1    1    2 am
   2    1   28 1
   3    1   29 1
   4    2    3 2
   5    2    4 am
   6    4    5 am
   7    4   30 1
   8    5    6 2
   9    5    7 1
  10    7    8 1
  11    7   31 1
  12    7   32 1
  13    8    9 1
  14    8   33 1
  15    8   34 1
  16    9   27 1
  17    9   10 1
  18   10   11 1
  19   10   35 1
  20   10   36 1
  21   11   12 1
  22   11   37 1
  23   11   38 1
  24   12   13 1
  25   12   21 1
  26   13   14 1
  27   13   39 1
  28   13   40 1
  29   14   15 1
  30   14   41 1
  31   14   42 1
  32   15   16 2
  33   15   17 am
  34   17   18 am
  35   17   43 1
  36   18   19 am
  37   18   20 2
  38   19   44 1
  39   19   45 1
  40   21   26 1
  41   21   22 1
  42   21   27 1
  43   22   23 1
  44   22   46 1
  45   22   47 1
  46   23   24 1
  47   23   48 1
  48   23   49 1
  49   24   25 1
  50   24   50 1
  51   24   51 1
  52   25   26 1
  53   25   52 1
  54   25   53 1
  55   26   54 1
  56   26   55 1
  57   27   56 1
  58   27   57 1
@<TRIPOS>MOLECULE
ZINC000079191670
62    65    1     0     0
SMALL
USER_CHARGES
@<TRIPOS>ATOM
1      C1      0.4751    0.8863    0.1118 C.3      1 ZINC000079191670    0.0300
2      O2      0.2059   -0.5097   -0.0318 O.3      1 ZINC000079191670   -0.3100
3      C3     -1.0977   -0.8922   -0.0071 C.ar     1 ZINC000079191670    0.0800
4      C4     -1.7027   -1.2173    1.2040 C.ar     1 ZINC000079191670    0.1000
5      O5     -0.9880   -1.1545    2.3594 O.3      1 ZINC000079191670   -0.4700
6      C6     -3.0303   -1.6036    1.2325 C.ar     1 ZINC000079191670   -0.0400
7      C7     -3.6862   -1.9555    2.5429 C.3      1 ZINC000079191670    0.0900
8      N8     -4.4460   -0.7991    3.0362 N.3      1 ZINC000079191670   -0.5100
9      C9     -3.6571    0.4351    2.9258 C.3      1 ZINC000079191670    0.0400
10     C10    -4.5418    1.6360    3.2774 C.3      1 ZINC000079191670    0.1200
11     N11    -5.1464    1.4004    4.5973 N.am     1 ZINC000079191670   -1.0000
12     S12    -5.0517    2.5433    5.7919 S.o2     1 ZINC000079191670    2.6100
13     C13    -6.5301    3.5678    5.5564 C.3      1 ZINC000079191670   -0.6700
14     O14    -5.1482    1.7984    6.9981 O.2      1 ZINC000079191670   -0.9500
15     O15    -3.8785    3.2814    5.4785 O.2      1 ZINC000079191670   -0.9600
16     C16    -5.8378    0.1229    4.8279 C.3      1 ZINC000079191670    0.1200
17     C17    -4.9021   -1.0184    4.4153 C.3      1 ZINC000079191670    0.0500
18     C18    -3.7613   -1.6664    0.0458 C.ar     1 ZINC000079191670   -0.1200
19     C19    -5.1864   -2.0619    0.0679 C.2      1 ZINC000079191670    0.5200
20     O20    -5.7767   -2.2236    1.1175 O.2      1 ZINC000079191670   -0.4000
21     O21    -5.8144   -2.2383   -1.1263 O.3      1 ZINC000079191670   -0.3300
22     C22    -5.4338   -1.2682   -2.1371 C.3      1 ZINC000079191670    0.0800
23     H23    -5.6196   -0.2626   -1.7600 H        1 ZINC000079191670    0.1000
24     C24    -6.2136   -1.4737   -3.4348 C.3      1 ZINC000079191670    0.1200
25     H25    -6.0324   -2.4781   -3.8176 H        1 ZINC000079191670    0.0800
26     O26    -7.6104   -1.2955   -3.1913 O.3      1 ZINC000079191670   -0.5400
27     C27    -5.7286   -0.4356   -4.4555 C.3      1 ZINC000079191670    0.0500
28     H28    -5.9713    0.5650   -4.0977 H        1 ZINC000079191670    0.0800
29     O29    -6.3775   -0.6622   -5.7083 O.3      1 ZINC000079191670   -0.5500
30     C30    -4.2152   -0.5562   -4.6396 C.3      1 ZINC000079191670    0.0600
31     H31    -3.9802   -1.5294   -5.0704 H        1 ZINC000079191670    0.0900
32     C32    -3.7298    0.5463   -5.5829 C.3      1 ZINC000079191670    0.0800
33     O33    -2.3373    0.3666   -5.8491 O.3      1 ZINC000079191670   -0.5600
34     O34    -3.5516   -0.4231   -3.3773 O.3      1 ZINC000079191670   -0.3300
35     C35    -3.9428   -1.4266   -2.4442 C.3      1 ZINC000079191670    0.1100
36     H36    -3.7652   -2.4064   -2.8876 H        1 ZINC000079191670    0.1000
37     C37    -3.1503   -1.3451   -1.1727 C.ar     1 ZINC000079191670   -0.0700
38     C38    -1.8260   -0.9525   -1.1927 C.ar     1 ZINC000079191670    0.1300
39     O39    -1.2313   -0.6291   -2.3723 O.3      1 ZINC000079191670   -0.4600
40     H40     1.5515    1.0545    0.0748 H        1 ZINC000079191670    0.1000
41     H41    -0.0063    1.4344   -0.6982 H        1 ZINC000079191670    0.0500
42     H42     0.0856    1.2351    1.0682 H        1 ZINC000079191670    0.0500
43     H43    -1.0246   -0.2935    2.7982 H        1 ZINC000079191670    0.3900
44     H44    -4.3616   -2.7983    2.3963 H        1 ZINC000079191670    0.1100
45     H45    -2.9214   -2.2252    3.2711 H        1 ZINC000079191670    0.0600
46     H46    -2.8137    0.3906    3.6148 H        1 ZINC000079191670    0.0400
47     H47    -3.2886    0.5412    1.9055 H        1 ZINC000079191670    0.0800
48     H48    -3.9350    2.5410    3.3089 H        1 ZINC000079191670    0.1000
49     H49    -5.3268    1.7440    2.5290 H        1 ZINC000079191670    0.0800
50     H50    -7.4212    2.9480    5.6559 H        1 ZINC000079191670    0.1300
51     H51    -6.5497    4.3559    6.3091 H        1 ZINC000079191670    0.1300
52     H52    -6.5077    4.0150    4.5626 H        1 ZINC000079191670    0.1300
53     H53    -6.0879    0.0274    5.8845 H        1 ZINC000079191670    0.1000
54     H54    -6.7475    0.0854    4.2286 H        1 ZINC000079191670    0.0800
55     H55    -5.4365   -1.9665    4.4752 H        1 ZINC000079191670    0.0900
56     H56    -4.0414   -1.0427    5.0836 H        1 ZINC000079191670    0.0400
57     H57    -8.1643   -1.4121   -3.9753 H        1 ZINC000079191670    0.3900
58     H58    -6.1187   -0.0416   -6.4032 H        1 ZINC000079191670    0.3900
59     H59    -4.2879    0.4963   -6.5179 H        1 ZINC000079191670    0.0600
60     H60    -3.8880    1.5189   -5.1169 H        1 ZINC000079191670    0.0600
61     H61    -1.9612    1.0316   -6.4418 H        1 ZINC000079191670    0.3900
62     H62    -1.3071    0.3057   -2.6078 H        1 ZINC000079191670    0.4000
@<TRIPOS>BOND
1     1     2     1
2     1     40    1
3     1     41    1
4     1     42    1
5     2     3     1
6     3     38    ar
7     3     4     ar
8     4     5     1
9     4     6     ar
10    5     43    1
11    6     7     1
12    6     18    ar
13    7     8     1
14    7     44    1
15    7     45    1
16    8     17    1
17    8     9     1
18    9     10    1
19    9     46    1
20    9     47    1
21    10    11    1
22    10    48    1
23    10    49    1
24    11    12    am
25    11    16    1
26    12    13    1
27    12    14    2
28    12    15    2
29    13    50    1
30    13    51    1
31    13    52    1
32    16    17    1
33    16    53    1
34    16    54    1
35    17    55    1
36    17    56    1
37    18    37    ar
38    18    19    1
39    19    20    2
40    19    21    1
41    21    22    1
42    22    23    1
43    22    35    1
44    22    24    1
45    24    25    1
46    24    26    1
47    24    27    1
48    26    57    1
49    27    28    1
50    27    29    1
51    27    30    1
52    29    58    1
53    30    31    1
54    30    32    1
55    30    34    1
56    32    33    1
57    32    59    1
58    32    60    1
59    33    61    1
60    34    35    1
61    35    36    1
62    35    37    1
63    37    38    ar
64    38    39    1
65    39    62    1
@<TRIPOS>SUBSTRUCTURE
1   ZINC000079191670 1     RESIDUE    1   A     ZIN   1

@<TRIPOS>MOLECULE
ZINC000079191670
61    64    1     0     0
SMALL
USER_CHARGES
@<TRIPOS>ATOM
1      C1      0.4665    0.8980    0.1106 C.3      1 ZINC000079191670    0.0400
2      O2      0.2029   -0.4994   -0.0305 O.3      1 ZINC000079191670   -0.3100
3      C3     -1.0992   -0.8871   -0.0065 C.ar     1 ZINC000079191670   -0.0700
4      C4     -1.7042   -1.2121    1.2046 C.ar     1 ZINC000079191670    0.2800
5      O5     -0.9910   -1.1442    2.3606 O.3      1 ZINC000079191670   -0.6800
6      C6     -3.0303   -1.6036    1.2325 C.ar     1 ZINC000079191670   -0.1600
7      C7     -3.6862   -1.9555    2.5429 C.3      1 ZINC000079191670    0.1200
8      N8     -4.4460   -0.7991    3.0362 N.3      1 ZINC000079191670   -0.5100
9      C9     -3.6571    0.4351    2.9258 C.3      1 ZINC000079191670    0.0500
10     C10    -4.5418    1.6360    3.2774 C.3      1 ZINC000079191670    0.1200
11     N11    -5.1464    1.4004    4.5973 N.am     1 ZINC000079191670   -1.0000
12     S12    -5.0517    2.5433    5.7919 S.o2     1 ZINC000079191670    2.6100
13     C13    -6.5301    3.5678    5.5564 C.3      1 ZINC000079191670   -0.6700
14     O14    -5.1482    1.7984    6.9981 O.2      1 ZINC000079191670   -0.9600
15     O15    -3.8785    3.2814    5.4785 O.2      1 ZINC000079191670   -0.9500
16     C16    -5.8378    0.1229    4.8279 C.3      1 ZINC000079191670    0.1300
17     C17    -4.9021   -1.0184    4.4153 C.3      1 ZINC000079191670    0.0500
18     C18    -3.7598   -1.6716    0.0452 C.ar     1 ZINC000079191670   -0.0900
19     C19    -5.1833   -2.0727    0.0665 C.2      1 ZINC000079191670    0.5200
20     O20    -5.7741   -2.2346    1.1159 O.2      1 ZINC000079191670   -0.4200
21     O21    -5.8094   -2.2540   -1.1280 O.3      1 ZINC000079191670   -0.3500
22     C22    -5.4316   -1.2844   -2.1403 C.3      1 ZINC000079191670    0.0900
23     H23    -5.6217   -0.2787   -1.7654 H        1 ZINC000079191670    0.0900
24     C24    -6.2091   -1.4955   -3.4384 C.3      1 ZINC000079191670    0.1200
25     H25    -6.0235   -2.4999   -3.8190 H        1 ZINC000079191670    0.0800
26     O26    -7.6068   -1.3223   -3.1967 O.3      1 ZINC000079191670   -0.5500
27     C27    -5.7271   -0.4575   -4.4606 C.3      1 ZINC000079191670    0.0500
28     H28    -5.9742    0.5428   -4.1050 H        1 ZINC000079191670    0.0800
29     O29    -6.3738   -0.6892   -5.7137 O.3      1 ZINC000079191670   -0.5600
30     C30    -4.2131   -0.5725   -4.6429 C.3      1 ZINC000079191670    0.0500
31     H31    -3.9737   -1.5457   -5.0715 H        1 ZINC000079191670    0.0800
32     C32    -3.7310    0.5301   -5.5879 C.3      1 ZINC000079191670    0.0900
33     O33    -2.3376    0.3553   -5.8522 O.3      1 ZINC000079191670   -0.5500
34     O34    -3.5514   -0.4343   -3.3802 O.3      1 ZINC000079191670   -0.3300
35     C35    -3.9395   -1.4375   -2.4455 C.3      1 ZINC000079191670    0.1400
36     H36    -3.7577   -2.4175   -2.8868 H        1 ZINC000079191670    0.0700
37     C37    -3.1488   -1.3504   -1.1733 C.ar     1 ZINC000079191670   -0.2200
38     C38    -1.8260   -0.9525   -1.1927 C.ar     1 ZINC000079191670    0.1600
39     O39    -1.2313   -0.6291   -2.3723 O.3      1 ZINC000079191670   -0.4800
40     H40     1.5422    1.0703    0.0743 H        1 ZINC000079191670    0.0700
41     H41    -0.0162    1.4425   -0.7010 H        1 ZINC000079191670    0.0200
42     H42     0.0745    1.2470    1.0659 H        1 ZINC000079191670    0.0400
43     H43    -4.3616   -2.7983    2.3963 H        1 ZINC000079191670    0.0800
44     H44    -2.9214   -2.2252    3.2711 H        1 ZINC000079191670    0.0400
45     H45    -2.8137    0.3906    3.6148 H        1 ZINC000079191670    0.0500
46     H46    -3.2886    0.5412    1.9055 H        1 ZINC000079191670    0.0900
47     H47    -3.9350    2.5410    3.3089 H        1 ZINC000079191670    0.0900
48     H48    -5.3268    1.7440    2.5290 H        1 ZINC000079191670    0.0700
49     H49    -7.4212    2.9480    5.6559 H        1 ZINC000079191670    0.1300
50     H50    -6.5497    4.3559    6.3091 H        1 ZINC000079191670    0.1200
51     H51    -6.5077    4.0150    4.5626 H        1 ZINC000079191670    0.1300
52     H52    -6.0879    0.0274    5.8845 H        1 ZINC000079191670    0.0900
53     H53    -6.7475    0.0854    4.2286 H        1 ZINC000079191670    0.0700
54     H54    -5.4365   -1.9665    4.4752 H        1 ZINC000079191670    0.0800
55     H55    -4.0414   -1.0427    5.0836 H        1 ZINC000079191670    0.0400
56     H56    -8.1595   -1.4427   -3.9811 H        1 ZINC000079191670    0.3800
57     H57    -6.1167   -0.0689   -6.4096 H        1 ZINC000079191670    0.3800
58     H58    -4.2879    0.4760   -6.5233 H        1 ZINC000079191670    0.0600
59     H59    -3.8936    1.5029   -5.1240 H        1 ZINC000079191670    0.0600
60     H60    -1.9634    1.0206   -6.4459 H        1 ZINC000079191670    0.3800
61     H61    -1.3106    0.3049   -2.6097 H        1 ZINC000079191670    0.3800
@<TRIPOS>BOND
1     1     2     1
2     1     40    1
3     1     41    1
4     1     42    1
5     2     3     1
6     3     38    ar
7     3     4     ar
8     4     5     1
9     4     6     ar
10    6     7     1
11    6     18    ar
12    7     8     1
13    7     43    1
14    7     44    1
15    8     17    1
16    8     9     1
17    9     10    1
18    9     45    1
19    9     46    1
20    10    11    1
21    10    47    1
22    10    48    1
23    11    12    am
24    11    16    1
25    12    13    1
26    12    14    2
27    12    15    2
28    13    49    1
29    13    50    1
30    13    51    1
31    16    17    1
32    16    52    1
33    16    53    1
34    17    54    1
35    17    55    1
36    18    37    ar
37    18    19    1
38    19    20    2
39    19    21    1
40    21    22    1
41    22    23    1
42    22    35    1
43    22    24    1
44    24    25    1
45    24    26    1
46    24    27    1
47    26    56    1
48    27    28    1
49    27    29    1
50    27    30    1
51    29    57    1
52    30    31    1
53    30    32    1
54    30    34    1
55    32    33    1
56    32    58    1
57    32    59    1
58    33    60    1
59    34    35    1
60    35    36    1
61    35    37    1
62    37    38    ar
63    38    39    1
64    39    61    1
@<TRIPOS>SUBSTRUCTURE
1   ZINC000079191670 1     RESIDUE    1   A     ZIN   1
@<TRIPOS>MOLECULE
ZINC000095453765
56    58    1     0     0
SMALL
USER_CHARGES
@<TRIPOS>ATOM
1      C1     -0.0187    1.5258    0.0104 C.3      1 ZINC000095453765   -0.1700
2      C2      0.0021   -0.0041    0.0020 C.3      1 ZINC000095453765    0.1400
3      C3      0.7182   -0.4975   -1.2568 C.3      1 ZINC000095453765   -0.1600
4      N4      0.7106   -0.4894    1.1889 N.am     1 ZINC000095453765   -0.7200
5      C5      0.0512   -0.6335    2.3554 C.2      1 ZINC000095453765    0.5200
6      O6     -1.1288   -0.3614    2.4226 O.2      1 ZINC000095453765   -0.5100
7      C7      0.7801   -1.1327    3.5763 C.3      1 ZINC000095453765    0.0300
8      O8     -0.1269   -1.1991    4.6786 O.3      1 ZINC000095453765   -0.2700
9      C9      0.3741   -1.6331    5.8640 C.ar     1 ZINC000095453765    0.1700
10     C10     1.7099   -1.9799    5.9589 C.ar     1 ZINC000095453765   -0.2000
11     C11     2.2273   -2.4239    7.1672 C.ar     1 ZINC000095453765    0.1600
12     C12     1.3855   -2.5180    8.2904 C.ar     1 ZINC000095453765   -0.1600
13     C13     1.9449   -2.9881    9.5592 C.2      1 ZINC000095453765    0.0100
14     C14     3.2629   -3.3158    9.5978 C.2      1 ZINC000095453765   -0.2500
15     C15     4.0489   -3.1973    8.4335 C.2      1 ZINC000095453765    0.5100
16     O16     5.2292   -3.4944    8.4815 O.2      1 ZINC000095453765   -0.4600
17     O17     3.5299   -2.7662    7.2735 O.3      1 ZINC000095453765   -0.2700
18     C18     0.0342   -2.1654    8.1862 C.ar     1 ZINC000095453765   -0.0800
19     C19    -0.4630   -1.7204    6.9806 C.ar     1 ZINC000095453765    0.0800
20     O20    -1.7747   -1.3766    6.8734 O.3      1 ZINC000095453765   -0.2800
21     C21    -2.5764   -1.5018    8.0496 C.3      1 ZINC000095453765    0.2200
22     H22    -2.1209   -0.9355    8.8620 H        1 ZINC000095453765    0.0800
23     O23    -2.6665   -2.8789    8.4206 O.3      1 ZINC000095453765   -0.3700
24     C24    -3.4291   -3.1152    9.6058 C.3      1 ZINC000095453765    0.1100
25     H25    -2.9849   -2.5700   10.4386 H        1 ZINC000095453765    0.0800
26     C26    -3.4327   -4.6125    9.9202 C.3      1 ZINC000095453765    0.0900
27     O27    -2.1047   -5.0365   10.2345 O.3      1 ZINC000095453765   -0.5700
28     C28    -4.8667   -2.6351    9.3900 C.3      1 ZINC000095453765    0.0900
29     H29    -5.3249   -3.2080    8.5839 H        1 ZINC000095453765    0.0800
30     O30    -5.6169   -2.8185   10.5924 O.3      1 ZINC000095453765   -0.5500
31     C31    -4.8501   -1.1495    9.0170 C.3      1 ZINC000095453765    0.0900
32     H32    -4.4374   -0.5707    9.8433 H        1 ZINC000095453765    0.0800
33     O33    -6.1822   -0.7103    8.7441 O.3      1 ZINC000095453765   -0.5500
34     C34    -3.9797   -0.9566    7.7714 C.3      1 ZINC000095453765    0.0600
35     H35    -4.4198   -1.4956    6.9324 H        1 ZINC000095453765    0.0900
36     O36    -3.8992    0.4348    7.4559 O.3      1 ZINC000095453765   -0.5500
37     H37     1.0039    1.9031    0.0027 H        1 ZINC000095453765    0.0600
38     H38    -0.5459    1.8868   -0.8726 H        1 ZINC000095453765    0.0700
39     H39    -0.5289    1.8773    0.9072 H        1 ZINC000095453765    0.0600
40     H40    -1.0205   -0.3814    0.0098 H        1 ZINC000095453765    0.0900
41     H41     1.7408   -0.1202   -1.2645 H        1 ZINC000095453765    0.0600
42     H42     0.7330   -1.5874   -1.2628 H        1 ZINC000095453765    0.0600
43     H43     0.1910   -0.1364   -2.1398 H        1 ZINC000095453765    0.0800
44     H44     1.6544   -0.7070    1.1351 H        1 ZINC000095453765    0.4000
45     H45     1.1839   -2.1254    3.3778 H        1 ZINC000095453765    0.1000
46     H46     1.5952   -0.4503    3.8172 H        1 ZINC000095453765    0.1000
47     H47     2.3500   -1.9054    5.0922 H        1 ZINC000095453765    0.1600
48     H48     1.3266   -3.0718   10.4408 H        1 ZINC000095453765    0.1600
49     H49     3.7072   -3.6657   10.5178 H        1 ZINC000095453765    0.1700
50     H50    -0.6136   -2.2373    9.0474 H        1 ZINC000095453765    0.1600
51     H51    -4.0861   -4.8035   10.7714 H        1 ZINC000095453765    0.0800
52     H52    -3.7948   -5.1650    9.0531 H        1 ZINC000095453765    0.0600
53     H53    -2.0317   -5.9775   10.4448 H        1 ZINC000095453765    0.3900
54     H54    -6.5391   -2.5348   10.5277 H        1 ZINC000095453765    0.4000
55     H55    -6.2464    0.2234    8.5006 H        1 ZINC000095453765    0.4000
56     H56    -3.3621    0.6308    6.6760 H        1 ZINC000095453765    0.4000
@<TRIPOS>BOND
1     1     2     1
2     1     37    1
3     1     38    1
4     1     39    1
5     2     3     1
6     2     4     1
7     2     40    1
8     3     41    1
9     3     42    1
10    3     43    1
11    4     5     am
12    4     44    1
13    5     6     2
14    5     7     1
15    7     8     1
16    7     45    1
17    7     46    1
18    8     9     1
19    9     19    ar
20    9     10    ar
21    10    11    ar
22    10    47    1
23    11    17    1
24    11    12    ar
25    12    13    1
26    12    18    ar
27    13    14    2
28    13    48    1
29    14    15    1
30    14    49    1
31    15    16    2
32    15    17    1
33    18    19    ar
34    18    50    1
35    19    20    1
36    20    21    1
37    21    22    1
38    21    34    1
39    21    23    1
40    23    24    1
41    24    25    1
42    24    26    1
43    24    28    1
44    26    27    1
45    26    51    1
46    26    52    1
47    27    53    1
48    28    29    1
49    28    30    1
50    28    31    1
51    30    54    1
52    31    32    1
53    31    33    1
54    31    34    1
55    33    55    1
56    34    35    1
57    34    36    1
58    36    56    1
@<TRIPOS>SUBSTRUCTURE
1   ZINC000095453765 1     RESIDUE    1   A     ZIN   1
@<TRIPOS>MOLECULE
ZINC000095519707
  49   50    0    0    0
SMALL
USER_CHARGES
NO_NAME
@<TRIPOS>ATOM
    1 C1        0.2291     1.5592    -0.1488 C.3    1 <0>      -0.0700
    2 C2        0.3652     0.0622    -0.2559 C.2    1 <0>       0.0800
    3 N3        0.5403    -0.6151    -1.3615 N.2    1 <0>      -0.3000
    4 N4        0.6188    -1.9749    -1.0340 N.pl3  1 <0>      -0.3700
    5 C5        0.8121    -3.0789    -1.9775 C.3    1 <0>       0.1000
    6 C6        0.4849    -2.0883     0.3040 C.2    1 <0>       0.1200
    7 C7        0.5074    -3.3716     1.0936 C.3    1 <0>      -0.0900
    8 C8        0.3322    -0.8427     0.8102 C.2    1 <0>      -0.2700
    9 C9        0.1500    -0.4929     2.2647 C.3    1 <0>       0.2100
   10 N10       1.4602    -0.2708     2.8814 N.am   1 <0>      -0.6100
   11 C11       2.0499     1.0702     2.8858 C.3    1 <0>       0.1100
   12 C12       1.6140     1.8149     4.1493 C.3    1 <0>       0.0500
   13 O13       2.1551     1.1602     5.2985 O.3    1 <0>      -0.5700
   14 C14       2.1230    -1.3003     3.4448 C.2    1 <0>       0.7100
   15 O15       1.6335    -2.4133     3.4411 O.2    1 <0>      -0.5700
   16 N16       3.3283    -1.0960     4.0121 N.am   1 <0>      -0.6800
   17 C17       3.9664    -2.1383     4.6941 C.ar   1 <0>       0.1600
   18 C18       5.3516    -2.2314     4.6832 C.ar   1 <0>      -0.1000
   19 C19       5.9785    -3.2611     5.3577 C.ar   1 <0>      -0.1200
   20 C20       5.2279    -4.1987     6.0427 C.ar   1 <0>      -0.0400
   21 C21       3.8478    -4.1089     6.0550 C.ar   1 <0>      -0.6500
   22 S22       2.8958    -5.3066     6.9291 S.o2   1 <0>       2.7000
   23 N23       2.7008    -4.7449     8.4746 N.am   1 <0>      -1.2500
   24 O24       1.6048    -5.3040     6.3353 O.2    1 <0>      -0.9600
   25 O25       3.7051    -6.4707     7.0243 O.2    1 <0>      -0.9600
   26 C26       3.2155    -3.0784     5.3879 C.ar   1 <0>      -0.0200
   27 H27       1.2152     2.0053    -0.0192 H      1 <0>       0.0700
   28 H28      -0.2290     1.9483    -1.0581 H      1 <0>       0.0700
   29 H29      -0.3972     1.8067     0.7082 H      1 <0>       0.0800
   30 H30       1.8784    -3.2673    -2.1026 H      1 <0>       0.0700
   31 H31       0.3275    -3.9757    -1.5915 H      1 <0>       0.0900
   32 H32       0.3743    -2.8150    -2.9402 H      1 <0>       0.0900
   33 H33       1.5312    -3.5962     1.3928 H      1 <0>       0.0900
   34 H34      -0.1150    -3.2628     1.9818 H      1 <0>       0.0900
   35 H35       0.1224    -4.1842     0.4775 H      1 <0>       0.0600
   36 H36      -0.4492     0.4138     2.3480 H      1 <0>       0.0800
   37 H37      -0.3575    -1.3119     2.7745 H      1 <0>       0.0900
   38 H38       3.1367     0.9893     2.8684 H      1 <0>       0.0800
   39 H39       1.7123     1.6184     2.0063 H      1 <0>       0.1000
   40 H40       1.9791     2.8412     4.1103 H      1 <0>       0.0600
   41 H41       0.5258     1.8184     4.2118 H      1 <0>       0.0500
   42 H42       1.9188     1.5792     6.1375 H      1 <0>       0.3800
   43 H43       3.7535    -0.2266     3.9478 H      1 <0>       0.4100
   44 H44       5.9384    -1.4998     4.1477 H      1 <0>       0.1300
   45 H45       7.0560    -3.3341     5.3496 H      1 <0>       0.1400
   46 H46       5.7203    -5.0030     6.5690 H      1 <0>       0.1400
   47 H47       3.0882    -3.8943     8.7340 H      1 <0>       0.4200
   48 H48       2.1992    -5.2664     9.1205 H      1 <0>       0.4200
   49 H49       2.1378    -3.0088     5.3979 H      1 <0>       0.1600
@<TRIPOS>BOND
   1    1    2 1
   2    1   27 1
   3    1   28 1
   4    1   29 1
   5    2    8 1
   6    2    3 2
   7    3    4 1
   8    4    5 1
   9    4    6 1
  10    5   30 1
  11    5   31 1
  12    5   32 1
  13    6    7 1
  14    6    8 2
  15    7   33 1
  16    7   34 1
  17    7   35 1
  18    8    9 1
  19    9   10 1
  20    9   36 1
  21    9   37 1
  22   10   11 1
  23   10   14 am
  24   11   12 1
  25   11   38 1
  26   11   39 1
  27   12   13 1
  28   12   40 1
  29   12   41 1
  30   13   42 1
  31   14   15 2
  32   14   16 am
  33   16   17 1
  34   16   43 1
  35   17   26 ar
  36   17   18 ar
  37   18   19 ar
  38   18   44 1
  39   19   20 ar
  40   19   45 1
  41   20   21 ar
  42   20   46 1
  43   21   22 1
  44   21   26 ar
  45   22   23 am
  46   22   24 2
  47   22   25 2
  48   23   47 1
  49   23   48 1
  50   26   49 1
@<TRIPOS>MOLECULE
ZINC000002103216
  53   55    0    0    0
SMALL
USER_CHARGES
NO_NAME
@<TRIPOS>ATOM
    1 C1       -1.2100    -5.4854    -6.3286 C.3    1 <0>      -0.1500
    2 C2       -1.1035    -3.9635    -6.4454 C.3    1 <0>      -0.1200
    3 C3       -2.4460    -3.3286    -6.0774 C.3    1 <0>      -0.1200
    4 C4       -2.3395    -1.8068    -6.1941 C.3    1 <0>      -0.1100
    5 C5       -3.6821    -1.1719    -5.8262 C.3    1 <0>       0.0800
    6 H6       -4.4691    -1.6013    -6.4460 H      1 <0>       0.0800
    7 N7       -3.9751    -1.4327    -4.4147 N.am   1 <0>      -0.6900
    8 C8       -5.2512    -1.4376    -3.9811 C.2    1 <0>       0.5100
    9 O9       -6.1569    -1.2261    -4.7594 O.2    1 <0>      -0.5400
   10 C10      -5.5526    -1.7059    -2.5291 C.3    1 <0>      -0.0900
   11 C11      -7.0424    -1.6553    -2.3076 C.2    1 <0>      -0.1900
   12 C12      -7.6324    -0.4993    -1.9107 C.2    1 <0>       0.0400
   13 C13      -6.8171     0.7479    -1.6854 C.3    1 <0>      -0.1300
   14 C14      -9.0844    -0.4966    -1.7074 C.ar   1 <0>      -0.1400
   15 C15      -9.8087    -1.6860    -1.9302 C.ar   1 <0>       0.1700
   16 O16      -9.1562    -2.8026    -2.3252 O.3    1 <0>      -0.2700
   17 C17      -7.8284    -2.8081    -2.5180 C.2    1 <0>       0.5300
   18 O18      -7.2857    -3.8384    -2.8743 O.2    1 <0>      -0.4500
   19 C19     -11.1801    -1.7064    -1.7441 C.ar   1 <0>      -0.0900
   20 C20     -11.9526    -2.9783    -1.9821 C.3    1 <0>      -0.1100
   21 C21     -11.8446    -0.5585    -1.3384 C.ar   1 <0>       0.1000
   22 O22     -13.1410    -0.2877    -1.0829 O.3    1 <0>      -0.1900
   23 C23     -13.3004     0.9949    -0.7109 C.2    1 <0>       0.0000
   24 C24     -12.1201     1.6264    -0.7041 C.2    1 <0>      -0.1700
   25 C25     -11.8670     3.0682    -0.3460 C.3    1 <0>      -0.0800
   26 C26     -11.1206     0.6306    -1.1156 C.ar   1 <0>      -0.1400
   27 C27      -9.7455     0.6620    -1.2993 C.ar   1 <0>      -0.0100
   28 C28      -3.6148     0.3156    -6.0587 C.2    1 <0>       0.4900
   29 O29      -3.9252     0.7776    -7.1435 O.co2  1 <0>      -0.7000
   30 O30      -3.2500     1.0569    -5.1621 O.co2  1 <0>      -0.6900
   31 H31      -0.2536    -5.9377    -6.5907 H      1 <0>       0.0500
   32 H32      -1.4705    -5.7539    -5.3048 H      1 <0>       0.0500
   33 H33      -1.9819    -5.8487    -7.0070 H      1 <0>       0.0500
   34 H34      -0.3317    -3.6002    -5.7669 H      1 <0>       0.0600
   35 H35      -0.8431    -3.6950    -7.4692 H      1 <0>       0.0600
   36 H36      -3.2179    -3.6919    -6.7558 H      1 <0>       0.0600
   37 H37      -2.7065    -3.5971    -5.0536 H      1 <0>       0.0600
   38 H38      -1.5677    -1.4435    -5.5157 H      1 <0>       0.0600
   39 H39      -2.0791    -1.5383    -7.2180 H      1 <0>       0.0700
   40 H40      -3.2507    -1.6019    -3.7922 H      1 <0>       0.3900
   41 H41      -5.1781    -2.6926    -2.2566 H      1 <0>       0.1100
   42 H42      -5.0676    -0.9499    -1.9116 H      1 <0>       0.1100
   43 H43      -5.7836     0.5644    -1.9790 H      1 <0>       0.0900
   44 H44      -7.2258     1.5622    -2.2838 H      1 <0>       0.0900
   45 H45      -6.8523     1.0194    -0.6303 H      1 <0>       0.0900
   46 H46     -12.0015    -3.5522    -1.0567 H      1 <0>       0.0700
   47 H47     -12.9624    -2.7338    -2.3117 H      1 <0>       0.0700
   48 H48     -11.4527    -3.5687    -2.7499 H      1 <0>       0.0800
   49 H49     -14.2456     1.4504    -0.4546 H      1 <0>       0.2100
   50 H50     -11.6685     3.1477     0.7228 H      1 <0>       0.0700
   51 H51     -11.0054     3.4353    -0.9038 H      1 <0>       0.0700
   52 H52     -12.7439     3.6645    -0.5981 H      1 <0>       0.0700
   53 H53      -9.1927     1.5737    -1.1274 H      1 <0>       0.1500
@<TRIPOS>BOND
   1    1    2 1
   2    1   31 1
   3    1   32 1
   4    1   33 1
   5    2    3 1
   6    2   34 1
   7    2   35 1
   8    3    4 1
   9    3   36 1
  10    3   37 1
  11    4    5 1
  12    4   38 1
  13    4   39 1
  14    5    6 1
  15    5    7 1
  16    5   28 1
  17    7    8 am
  18    7   40 1
  19    8    9 2
  20    8   10 1
  21   10   11 1
  22   10   41 1
  23   10   42 1
  24   11   17 1
  25   11   12 2
  26   12   13 1
  27   12   14 1
  28   13   43 1
  29   13   44 1
  30   13   45 1
  31   14   27 ar
  32   14   15 ar
  33   15   16 1
  34   15   19 ar
  35   16   17 1
  36   17   18 2
  37   19   20 1
  38   19   21 ar
  39   20   46 1
  40   20   47 1
  41   20   48 1
  42   21   26 ar
  43   21   22 1
  44   22   23 1
  45   23   24 2
  46   23   49 1
  47   24   25 1
  48   24   26 1
  49   25   50 1
  50   25   51 1
  51   25   52 1
  52   26   27 ar
  53   27   53 1
  54   28   29 ar
  55   28   30 ar
@<TRIPOS>MOLECULE
ZINC000002103490
  53   55    0    0    0
SMALL
USER_CHARGES
NO_NAME
@<TRIPOS>ATOM
    1 C1        0.5606     1.3795     0.5871 C.3    1 <0>      -0.1500
    2 C2        0.7836    -0.1300     0.6994 C.3    1 <0>      -0.1300
    3 C3        1.3791    -0.6561    -0.6081 C.3    1 <0>      -0.1200
    4 C4        1.6022    -2.1656    -0.4958 C.3    1 <0>      -0.1100
    5 C5        2.1976    -2.6918    -1.8033 C.3    1 <0>       0.0800
    6 H6        1.5537    -2.4083    -2.6358 H      1 <0>       0.0800
    7 N7        3.5306    -2.1165    -1.9992 N.am   1 <0>      -0.6900
    8 C8        4.0406    -2.0050    -3.2418 C.2    1 <0>       0.5200
    9 O9        3.3959    -2.3809    -4.1978 O.2    1 <0>      -0.5400
   10 C10       5.4118    -1.4132    -3.4432 C.3    1 <0>      -0.0900
   11 C11       5.7432    -1.4024    -4.9133 C.2    1 <0>      -0.1800
   12 C12       5.4814    -0.3008    -5.6617 C.2    1 <0>       0.0200
   13 C13       4.8594     0.9248    -5.0435 C.3    1 <0>      -0.1300
   14 C14       5.8204    -0.3353    -7.0877 C.ar   1 <0>      -0.1500
   15 C15       6.4016    -1.5026    -7.6248 C.ar   1 <0>       0.1700
   16 C16       6.7293    -1.5573    -8.9685 C.ar   1 <0>      -0.1300
   17 C17       6.4877    -0.4655    -9.7889 C.ar   1 <0>       0.1000
   18 O18       6.6975    -0.2367   -11.1016 O.3    1 <0>      -0.1900
   19 C19       6.2910     0.9983   -11.4458 C.2    1 <0>       0.0300
   20 C20       6.3794     1.5785   -12.8338 C.3    1 <0>      -0.0800
   21 C21       5.7961     1.6382   -10.3792 C.2    1 <0>      -0.1700
   22 C22       5.2379     3.0375   -10.3418 C.3    1 <0>      -0.0800
   23 C23       5.9067     0.7016    -9.2521 C.ar   1 <0>      -0.1500
   24 C24       5.5739     0.7669    -7.9065 C.ar   1 <0>      -0.0100
   25 O25       6.6351    -2.5645    -6.8208 O.3    1 <0>      -0.2700
   26 C26       6.3318    -2.5353    -5.5142 C.2    1 <0>       0.5200
   27 O27       6.5610    -3.5168    -4.8307 O.2    1 <0>      -0.4400
   28 C28       2.3032    -4.1937    -1.7387 C.2    1 <0>       0.4900
   29 O29       1.2939    -4.8773    -1.7626 O.co2  1 <0>      -0.7000
   30 O30       3.3978    -4.7251    -1.6625 O.co2  1 <0>      -0.6800
   31 H31       1.5129     1.8744     0.3966 H      1 <0>       0.0500
   32 H32      -0.1265     1.5852    -0.2337 H      1 <0>       0.0500
   33 H33       0.1364     1.7544     1.5186 H      1 <0>       0.0500
   34 H34       1.4707    -0.3357     1.5202 H      1 <0>       0.0600
   35 H35      -0.1687    -0.6248     0.8900 H      1 <0>       0.0600
   36 H36       0.6921    -0.4504    -1.4289 H      1 <0>       0.0600
   37 H37       2.3314    -0.1613    -0.7987 H      1 <0>       0.0600
   38 H38       2.2892    -2.3713     0.3250 H      1 <0>       0.0600
   39 H39       0.6498    -2.6604    -0.3053 H      1 <0>       0.0800
   40 H40       4.0463    -1.8159    -1.2345 H      1 <0>       0.3900
   41 H41       5.4272    -0.3930    -3.0597 H      1 <0>       0.1100
   42 H42       6.1485    -2.0133    -2.9091 H      1 <0>       0.1100
   43 H43       4.6001     0.7164    -4.0055 H      1 <0>       0.0800
   44 H44       5.5693     1.7511    -5.0819 H      1 <0>       0.0900
   45 H45       3.9590     1.1933    -5.5961 H      1 <0>       0.0900
   46 H46       7.1743    -2.4518    -9.3788 H      1 <0>       0.1500
   47 H47       6.8217     0.8441   -13.5071 H      1 <0>       0.0800
   48 H48       5.3801     1.8369   -13.1840 H      1 <0>       0.0900
   49 H49       7.0005     2.4740   -12.8144 H      1 <0>       0.0900
   50 H50       4.1678     3.0075   -10.5468 H      1 <0>       0.0700
   51 H51       5.4069     3.4699    -9.3556 H      1 <0>       0.0700
   52 H52       5.7353     3.6474   -11.0959 H      1 <0>       0.0700
   53 H53       5.1292     1.6620    -7.4972 H      1 <0>       0.1400
@<TRIPOS>BOND
   1    1    2 1
   2    1   31 1
   3    1   32 1
   4    1   33 1
   5    2    3 1
   6    2   34 1
   7    2   35 1
   8    3    4 1
   9    3   36 1
  10    3   37 1
  11    4    5 1
  12    4   38 1
  13    4   39 1
  14    5    6 1
  15    5    7 1
  16    5   28 1
  17    7    8 am
  18    7   40 1
  19    8    9 2
  20    8   10 1
  21   10   11 1
  22   10   41 1
  23   10   42 1
  24   11   26 1
  25   11   12 2
  26   12   13 1
  27   12   14 1
  28   13   43 1
  29   13   44 1
  30   13   45 1
  31   14   24 ar
  32   14   15 ar
  33   15   16 ar
  34   15   25 1
  35   16   17 ar
  36   16   46 1
  37   17   23 ar
  38   17   18 1
  39   18   19 1
  40   19   20 1
  41   19   21 2
  42   20   47 1
  43   20   48 1
  44   20   49 1
  45   21   22 1
  46   21   23 1
  47   22   50 1
  48   22   51 1
  49   22   52 1
  50   23   24 ar
  51   24   53 1
  52   25   26 1
  53   26   27 2
  54   28   29 ar
  55   28   30 ar
@<TRIPOS>MOLECULE
ZINC000002105226
53    55    1     0     0
SMALL
USER_CHARGES
@<TRIPOS>ATOM
1      C1     -0.0187    1.5258    0.0104 C.3      1 ZINC000002105226   -0.1500
2      C2      0.0021   -0.0041    0.0020 C.3      1 ZINC000002105226   -0.1200
3      C3     -1.4333   -0.5336    0.0129 C.3      1 ZINC000002105226   -0.1100
4      C4     -1.4126   -2.0635    0.0045 C.3      1 ZINC000002105226    0.0800
5      H5     -0.8263   -2.4142   -0.8449 H        1 ZINC000002105226    0.0800
6      N6     -0.8103   -2.5505    1.2480 N.am     1 ZINC000002105226   -0.6900
7      C7     -0.2268   -3.7649    1.2837 C.2      1 ZINC000002105226    0.5100
8      O8     -0.2003   -4.4545    0.2863 O.2      1 ZINC000002105226   -0.5500
9      C9      0.3926   -4.2659    2.5628 C.3      1 ZINC000002105226   -0.1300
10     C10     0.9811   -5.6594    2.3329 C.3      1 ZINC000002105226   -0.0500
11     C11     1.6005   -6.1604    3.6121 C.2      1 ZINC000002105226   -0.2100
12     C12     0.8878   -6.9598    4.4458 C.2      1 ZINC000002105226    0.0300
13     C13    -0.5263   -7.3603    4.1126 C.3      1 ZINC000002105226   -0.1300
14     C14     1.5309   -7.4234    5.6792 C.ar     1 ZINC000002105226   -0.1500
15     C15     2.8560   -7.0248    5.9515 C.ar     1 ZINC000002105226    0.1700
16     C16     3.4825   -7.4502    7.1101 C.ar     1 ZINC000002105226   -0.1300
17     C17     2.8096   -8.2690    8.0048 C.ar     1 ZINC000002105226    0.1000
18     O18     3.1572   -8.8251    9.1835 O.3      1 ZINC000002105226   -0.1900
19     C19     2.1461   -9.5544    9.6883 C.2      1 ZINC000002105226    0.0300
20     C20     2.1960  -10.3101   10.9912 C.3      1 ZINC000002105226   -0.0800
21     C21     1.0890   -9.5126    8.8681 C.2      1 ZINC000002105226   -0.1700
22     C22    -0.2397  -10.1949    9.0686 C.3      1 ZINC000002105226   -0.0800
23     C23     1.4849   -8.6675    7.7327 C.ar     1 ZINC000002105226   -0.1400
24     C24     0.8473   -8.2463    6.5743 C.ar     1 ZINC000002105226    0.0000
25     O25     3.5077   -6.2264    5.0760 O.3      1 ZINC000002105226   -0.2700
26     C26     2.9252   -5.8045    3.9434 C.2      1 ZINC000002105226    0.5200
27     O27     3.5529   -5.0865    3.1861 O.2      1 ZINC000002105226   -0.4500
28     C28    -2.8221   -2.5844   -0.1087 C.2      1 ZINC000002105226    0.4900
29     O29    -3.3104   -2.7882   -1.2072 O.co2    1 ZINC000002105226   -0.7000
30     O30    -3.4743   -2.8020    0.8982 O.co2    1 ZINC000002105226   -0.6900
31     H31     1.0039    1.9031    0.0027 H        1 ZINC000002105226    0.0500
32     H32    -0.5459    1.8868   -0.8726 H        1 ZINC000002105226    0.0500
33     H33    -0.5289    1.8773    0.9072 H        1 ZINC000002105226    0.0500
34     H34     0.5123   -0.3556   -0.8948 H        1 ZINC000002105226    0.0600
35     H35     0.5293   -0.3651    0.8851 H        1 ZINC000002105226    0.0600
36     H36    -1.9435   -0.1821    0.9097 H        1 ZINC000002105226    0.0600
37     H37    -1.9605   -0.1726   -0.8702 H        1 ZINC000002105226    0.0700
38     H38    -0.8315   -1.9990    2.0457 H        1 ZINC000002105226    0.3900
39     H39     1.1840   -3.5843    2.8746 H        1 ZINC000002105226    0.0900
40     H40    -0.3698   -4.3172    3.3401 H        1 ZINC000002105226    0.0900
41     H41     0.1897   -6.3411    2.0211 H        1 ZINC000002105226    0.0900
42     H42     1.7436   -5.6081    1.5557 H        1 ZINC000002105226    0.0900
43     H43    -0.5157   -8.2863    3.5376 H        1 ZINC000002105226    0.0900
44     H44    -1.0879   -7.5115    5.0345 H        1 ZINC000002105226    0.0800
45     H45    -0.9980   -6.5730    3.5247 H        1 ZINC000002105226    0.0900
46     H46     4.4973   -7.1444    7.3176 H        1 ZINC000002105226    0.1500
47     H47     3.1733  -10.1725   11.4538 H        1 ZINC000002105226    0.0800
48     H48     1.4214   -9.9337   11.6594 H        1 ZINC000002105226    0.0900
49     H49     2.0294  -11.3706   10.8027 H        1 ZINC000002105226    0.0900
50     H50    -0.9111   -9.5301    9.6122 H        1 ZINC000002105226    0.0700
51     H51    -0.6742  -10.4363    8.0985 H        1 ZINC000002105226    0.0700
52     H52    -0.0948  -11.1116    9.6401 H        1 ZINC000002105226    0.0700
53     H53    -0.1674   -8.5531    6.3677 H        1 ZINC000002105226    0.1500
@<TRIPOS>BOND
1     1     2     1
2     1     31    1
3     1     32    1
4     1     33    1
5     2     3     1
6     2     34    1
7     2     35    1
8     3     4     1
9     3     36    1
10    3     37    1
11    4     5     1
12    4     6     1
13    4     28    1
14    6     7     am
15    6     38    1
16    7     8     2
17    7     9     1
18    9     10    1
19    9     39    1
20    9     40    1
21    10    11    1
22    10    41    1
23    10    42    1
24    11    26    1
25    11    12    2
26    12    13    1
27    12    14    1
28    13    43    1
29    13    44    1
30    13    45    1
31    14    24    ar
32    14    15    ar
33    15    16    ar
34    15    25    1
35    16    17    ar
36    16    46    1
37    17    23    ar
38    17    18    1
39    18    19    1
40    19    20    1
41    19    21    2
42    20    47    1
43    20    48    1
44    20    49    1
45    21    22    1
46    21    23    1
47    22    50    1
48    22    51    1
49    22    52    1
50    23    24    ar
51    24    53    1
52    25    26    1
53    26    27    2
54    28    29    ar
55    28    30    ar
@<TRIPOS>SUBSTRUCTURE
1   ZINC000002105226 1     RESIDUE    1   A     ZIN   1
@<TRIPOS>MOLECULE
ZINC000002108347
53    55    1     0     0
SMALL
USER_CHARGES
@<TRIPOS>ATOM
1      C1     -0.0184    1.5028    0.0103 C.3      1 ZINC000002108347   -0.0800
2      C2      0.0021   -0.0041    0.0020 C.2      1 ZINC000002108347   -0.1700
3      C3      0.0086   -0.8022   -1.0727 C.2      1 ZINC000002108347    0.0000
4      O4      0.0282   -2.0929   -0.6951 O.3      1 ZINC000002108347   -0.1900
5      C5      0.0353   -2.2023    0.6493 C.ar     1 ZINC000002108347    0.1000
6      C6      0.0548   -3.2899    1.5097 C.ar     1 ZINC000002108347   -0.1300
7      C7      0.0580   -3.0918    2.8796 C.ar     1 ZINC000002108347    0.1700
8      C8      0.0420   -1.7822    3.4029 C.ar     1 ZINC000002108347   -0.1500
9      C9      0.0229   -0.6832    2.5440 C.ar     1 ZINC000002108347   -0.0100
10     C10     0.0253   -0.8930    1.1722 C.ar     1 ZINC000002108347   -0.1500
11     C11     0.0452   -1.5974    4.8574 C.2      1 ZINC000002108347    0.0200
12     C12     0.0280   -0.2171    5.4621 C.3      1 ZINC000002108347   -0.1300
13     C13     0.0637   -2.7029    5.6445 C.2      1 ZINC000002108347   -0.2100
14     C14     0.0672   -2.5621    7.1449 C.3      1 ZINC000002108347   -0.0500
15     C15    -1.3666   -2.6599    7.6697 C.3      1 ZINC000002108347   -0.1300
16     C16    -1.3631   -2.5191    9.1701 C.2      1 ZINC000002108347    0.5100
17     O17    -0.3168   -2.3566    9.7614 O.2      1 ZINC000002108347   -0.5500
18     N18    -2.5227   -2.5738    9.8548 N.am     1 ZINC000002108347   -0.6900
19     C19    -2.5192   -2.4369   11.3134 C.3      1 ZINC000002108347    0.0800
20     H20    -1.7407   -1.7343   11.6106 H        1 ZINC000002108347    0.0900
21     C21    -3.8805   -1.9172   11.7801 C.3      1 ZINC000002108347   -0.1100
22     C22    -4.0980   -0.5018   11.2413 C.3      1 ZINC000002108347   -0.1000
23     C23    -5.5080   -0.0299   11.6022 C.3      1 ZINC000002108347   -0.1400
24     C24    -3.0688    0.4443   11.8628 C.3      1 ZINC000002108347   -0.1500
25     C25    -2.2513   -3.7795   11.9433 C.2      1 ZINC000002108347    0.4900
26     O26    -1.6795   -3.8454   13.0181 O.co2    1 ZINC000002108347   -0.7000
27     O27    -2.6062   -4.7998   11.3780 O.co2    1 ZINC000002108347   -0.6900
28     C28     0.0791   -3.9845    5.0542 C.2      1 ZINC000002108347    0.5100
29     O29     0.0956   -4.9676    5.7726 O.2      1 ZINC000002108347   -0.4400
30     O30     0.0760   -4.1489    3.7226 O.3      1 ZINC000002108347   -0.2700
31     H31     1.0042    1.8801    0.0026 H        1 ZINC000002108347    0.0700
32     H32    -0.5455    1.8639   -0.8728 H        1 ZINC000002108347    0.0700
33     H33    -0.5286    1.8543    0.9071 H        1 ZINC000002108347    0.0700
34     H34    -0.0010   -0.4587   -2.0966 H        1 ZINC000002108347    0.2100
35     H35     0.0671   -4.2932    1.1102 H        1 ZINC000002108347    0.1500
36     H36     0.0102    0.3205    2.9425 H        1 ZINC000002108347    0.1500
37     H37     0.0142    0.5279    4.6666 H        1 ZINC000002108347    0.0700
38     H38    -0.8612   -0.1032    6.0821 H        1 ZINC000002108347    0.0900
39     H39     0.9186   -0.0778    6.0749 H        1 ZINC000002108347    0.0900
40     H40     0.6695   -3.3579    7.5831 H        1 ZINC000002108347    0.0900
41     H41     0.4890   -1.5949    7.4181 H        1 ZINC000002108347    0.0900
42     H42    -1.9689   -1.8641    7.2315 H        1 ZINC000002108347    0.0900
43     H43    -1.7884   -3.6271    7.3965 H        1 ZINC000002108347    0.0900
44     H44    -3.3595   -2.7038    9.3818 H        1 ZINC000002108347    0.3900
45     H45    -4.6671   -2.5729   11.4069 H        1 ZINC000002108347    0.0600
46     H46    -3.9086   -1.8995   12.8696 H        1 ZINC000002108347    0.0700
47     H47    -3.9819   -0.5038   10.1575 H        1 ZINC000002108347    0.0700
48     H48    -5.6241   -0.0279   12.6860 H        1 ZINC000002108347    0.0500
49     H49    -5.6630    0.9785   11.2183 H        1 ZINC000002108347    0.0500
50     H50    -6.2412   -0.7039   11.1594 H        1 ZINC000002108347    0.0500
51     H51    -3.2238    1.4526   11.4789 H        1 ZINC000002108347    0.0500
52     H52    -3.1850    0.4463   12.9466 H        1 ZINC000002108347    0.0500
53     H53    -2.0643    0.1081   11.6057 H        1 ZINC000002108347    0.0600
@<TRIPOS>BOND
1     1     2     1
2     1     31    1
3     1     32    1
4     1     33    1
5     2     10    1
6     2     3     2
7     3     4     1
8     3     34    1
9     4     5     1
10    5     10    ar
11    5     6     ar
12    6     7     ar
13    6     35    1
14    7     30    1
15    7     8     ar
16    8     9     ar
17    8     11    1
18    9     10    ar
19    9     36    1
20    11    12    1
21    11    13    2
22    12    37    1
23    12    38    1
24    12    39    1
25    13    14    1
26    13    28    1
27    14    15    1
28    14    40    1
29    14    41    1
30    15    16    1
31    15    42    1
32    15    43    1
33    16    17    2
34    16    18    am
35    18    19    1
36    18    44    1
37    19    20    1
38    19    21    1
39    19    25    1
40    21    22    1
41    21    45    1
42    21    46    1
43    22    23    1
44    22    24    1
45    22    47    1
46    23    48    1
47    23    49    1
48    23    50    1
49    24    51    1
50    24    52    1
51    24    53    1
52    25    26    ar
53    25    27    ar
54    28    29    2
55    28    30    1
@<TRIPOS>SUBSTRUCTURE
1   ZINC000002108347 1     RESIDUE    1   A     ZIN   1
@<TRIPOS>MOLECULE
ZINC000002123469
56    58    1     0     0
SMALL
USER_CHARGES
@<TRIPOS>ATOM
1      C1      0.4975    1.4641    0.0054 C.3      1 ZINC000002123469   -0.1100
2      C2      0.4454   -0.0420    0.0126 C.ar     1 ZINC000002123469   -0.0900
3      C3      0.5993   -0.7456   -1.1727 C.ar     1 ZINC000002123469    0.1000
4      O4      0.8031   -0.3629   -2.4499 O.3      1 ZINC000002123469   -0.1900
5      C5      0.8890   -1.4299   -3.2641 C.2      1 ZINC000002123469    0.0100
6      C6      0.7463   -2.5614   -2.5631 C.2      1 ZINC000002123469   -0.1500
7      C7      0.7793   -3.9691   -3.1001 C.3      1 ZINC000002123469    0.0000
8      C8      1.0060   -3.9327   -4.6128 C.3      1 ZINC000002123469   -0.1500
9      C9      1.9176   -4.7431   -2.4322 C.3      1 ZINC000002123469   -0.1400
10     C10    -0.5522   -4.6607   -2.8004 C.3      1 ZINC000002123469   -0.1400
11     C11     0.5508   -2.1546   -1.1644 C.ar     1 ZINC000002123469   -0.1400
12     C12     0.3506   -2.8448    0.0227 C.ar     1 ZINC000002123469   -0.0100
13     C13     0.1974   -2.1300    1.2108 C.ar     1 ZINC000002123469   -0.1500
14     C14     0.2496   -0.7207    1.2029 C.ar     1 ZINC000002123469    0.1600
15     O15     0.0997   -0.0392    2.3612 O.3      1 ZINC000002123469   -0.2700
16     C16    -0.0990   -0.6725    3.5272 C.2      1 ZINC000002123469    0.5200
17     O17    -0.2289   -0.0151    4.5440 O.2      1 ZINC000002123469   -0.4500
18     C18    -0.1620   -2.0799    3.6068 C.2      1 ZINC000002123469   -0.2100
19     C19    -0.3874   -2.7520    4.9367 C.3      1 ZINC000002123469   -0.0500
20     C20     0.9557   -2.9495    5.6425 C.3      1 ZINC000002123469   -0.1400
21     C21     0.7303   -3.6216    6.9723 C.2      1 ZINC000002123469    0.5100
22     O22    -0.3939   -3.9139    7.3213 O.2      1 ZINC000002123469   -0.5600
23     N23     1.7779   -3.8979    7.7739 N.am     1 ZINC000002123469   -0.7000
24     C24     1.5588   -4.5512    9.0667 C.3      1 ZINC000002123469    0.0700
25     H25     0.6187   -4.2034    9.4949 H        1 ZINC000002123469    0.0800
26     C26     1.4988   -6.0671    8.8683 C.3      1 ZINC000002123469   -0.1400
27     C27     2.6922   -4.2112    9.9999 C.2      1 ZINC000002123469    0.5000
28     O28     2.6168   -4.5014   11.1817 O.co2    1 ZINC000002123469   -0.6900
29     O29     3.6846   -3.6459    9.5731 O.co2    1 ZINC000002123469   -0.6900
30     C30    -0.0157   -2.8268    2.4831 C.2      1 ZINC000002123469    0.0200
31     C31    -0.0792   -4.3314    2.5402 C.3      1 ZINC000002123469   -0.1400
32     H32     1.5265    1.7928    0.1512 H        1 ZINC000002123469    0.0800
33     H33     0.1293    1.8358   -0.9508 H        1 ZINC000002123469    0.0700
34     H34    -0.1257    1.8531    0.8107 H        1 ZINC000002123469    0.0800
35     H35     1.0498   -1.3809   -4.3309 H        1 ZINC000002123469    0.2100
36     H36     1.9546   -3.4401   -4.8262 H        1 ZINC000002123469    0.0600
37     H37     1.0299   -4.9509   -5.0012 H        1 ZINC000002123469    0.0600
38     H38     0.1951   -3.3813   -5.0885 H        1 ZINC000002123469    0.0600
39     H39     1.7561   -4.7691   -1.3546 H        1 ZINC000002123469    0.0600
40     H40     1.9415   -5.7613   -2.8206 H        1 ZINC000002123469    0.0600
41     H41     2.8662   -4.2505   -2.6457 H        1 ZINC000002123469    0.0600
42     H42    -1.3632   -4.1092   -3.2762 H        1 ZINC000002123469    0.0600
43     H43    -0.5283   -5.6788   -3.1888 H        1 ZINC000002123469    0.0600
44     H44    -0.7137   -4.6866   -1.7228 H        1 ZINC000002123469    0.0600
45     H45     0.3134   -3.9242    0.0267 H        1 ZINC000002123469    0.1400
46     H46    -1.0340   -2.1284    5.5540 H        1 ZINC000002123469    0.0900
47     H47    -0.8606   -3.7211    4.7785 H        1 ZINC000002123469    0.0900
48     H48     1.6023   -3.5731    5.0252 H        1 ZINC000002123469    0.0900
49     H49     1.4289   -1.9804    5.8007 H        1 ZINC000002123469    0.0900
50     H50     2.6770   -3.6641    7.4949 H        1 ZINC000002123469    0.4100
51     H51     2.4388   -6.4150    8.4401 H        1 ZINC000002123469    0.0500
52     H52     1.3358   -6.5533    9.8302 H        1 ZINC000002123469    0.0600
53     H53     0.6790   -6.3131    8.1934 H        1 ZINC000002123469    0.0500
54     H54    -0.1545   -4.6527    3.5791 H        1 ZINC000002123469    0.0900
55     H55    -0.9522   -4.6794    1.9881 H        1 ZINC000002123469    0.0900
56     H56     0.8231   -4.7503    2.0948 H        1 ZINC000002123469    0.0900
@<TRIPOS>BOND
1     1     2     1
2     1     32    1
3     1     33    1
4     1     34    1
5     2     14    ar
6     2     3     ar
7     3     11    ar
8     3     4     1
9     4     5     1
10    5     6     2
11    5     35    1
12    6     7     1
13    6     11    1
14    7     8     1
15    7     9     1
16    7     10    1
17    8     36    1
18    8     37    1
19    8     38    1
20    9     39    1
21    9     40    1
22    9     41    1
23    10    42    1
24    10    43    1
25    10    44    1
26    11    12    ar
27    12    13    ar
28    12    45    1
29    13    30    1
30    13    14    ar
31    14    15    1
32    15    16    1
33    16    17    2
34    16    18    1
35    18    19    1
36    18    30    2
37    19    20    1
38    19    46    1
39    19    47    1
40    20    21    1
41    20    48    1
42    20    49    1
43    21    22    2
44    21    23    am
45    23    24    1
46    23    50    1
47    24    25    1
48    24    26    1
49    24    27    1
50    26    51    1
51    26    52    1
52    26    53    1
53    27    28    ar
54    27    29    ar
55    30    31    1
56    31    54    1
57    31    55    1
58    31    56    1
@<TRIPOS>SUBSTRUCTURE
1   ZINC000002123469 1     RESIDUE    1   A     ZIN   1
@<TRIPOS>MOLECULE
ZINC000005984531
  53   55    0    0    0
SMALL
USER_CHARGES
NO_NAME
@<TRIPOS>ATOM
    1 C1       -1.1158     1.7317    -1.0194 C.3    1 <0>      -0.1500
    2 C2       -0.9880     0.2072    -1.0007 C.3    1 <0>      -0.1200
    3 C3       -2.3515    -0.4151    -0.6935 C.3    1 <0>      -0.0800
    4 H4       -2.7391    -0.0000     0.2368 H      1 <0>       0.0600
    5 C5       -3.3226    -0.1044    -1.8343 C.3    1 <0>      -0.1400
    6 C6       -2.1999    -1.9310    -0.5515 C.3    1 <0>       0.0700
    7 H7       -1.5081    -2.1524     0.2612 H      1 <0>       0.0800
    8 N8       -3.5055    -2.5269    -0.2574 N.am   1 <0>      -0.6900
    9 C9       -3.5773    -3.7068     0.3900 C.2    1 <0>       0.5200
   10 O10      -2.5610    -4.2752     0.7291 O.2    1 <0>      -0.5400
   11 C11      -4.9203    -4.3198     0.6926 C.3    1 <0>      -0.0900
   12 C12      -4.7243    -5.6267     1.4168 C.2    1 <0>      -0.1800
   13 C13      -4.7334    -5.6609     2.7736 C.2    1 <0>       0.0200
   14 C14      -4.9386    -4.4031     3.5779 C.3    1 <0>      -0.1300
   15 C15      -4.5387    -6.9545     3.4355 C.ar   1 <0>      -0.1500
   16 C16      -4.3507    -8.1067     2.6442 C.ar   1 <0>       0.1700
   17 C17      -4.1647    -9.3382     3.2480 C.ar   1 <0>      -0.1300
   18 C18      -4.1631    -9.4422     4.6311 C.ar   1 <0>       0.1000
   19 O19      -4.0098   -10.4830     5.4752 O.3    1 <0>      -0.1900
   20 C20      -4.0863   -10.0792     6.7559 C.2    1 <0>       0.0300
   21 C21      -3.9574   -10.9847     7.9536 C.3    1 <0>      -0.0800
   22 C22      -4.2929    -8.7579     6.8144 C.2    1 <0>      -0.1700
   23 C23      -4.4370    -7.9185     8.0577 C.3    1 <0>      -0.0800
   24 C24      -4.3511    -8.2905     5.4223 C.ar   1 <0>      -0.1500
   25 C25      -4.5380    -7.0508     4.8272 C.ar   1 <0>      -0.0100
   26 O26      -4.3531    -8.0000     1.2962 O.3    1 <0>      -0.2700
   27 C27      -4.5366    -6.8192     0.6861 C.2    1 <0>       0.5200
   28 O28      -4.5305    -6.7737    -0.5308 O.2    1 <0>      -0.4400
   29 C29      -1.6640    -2.5049    -1.8377 C.2    1 <0>       0.5000
   30 O30      -0.5127    -2.2825    -2.1716 O.co2  1 <0>      -0.7000
   31 O31      -2.3818    -3.1917    -2.5446 O.co2  1 <0>      -0.6800
   32 H32      -0.1444     2.1751    -1.2383 H      1 <0>       0.0500
   33 H33      -1.8311     2.0270    -1.7870 H      1 <0>       0.0500
   34 H34      -1.4629     2.0793    -0.0464 H      1 <0>       0.0400
   35 H35      -0.6409    -0.1403    -1.9737 H      1 <0>       0.0900
   36 H36      -0.2726    -0.0880    -0.2331 H      1 <0>       0.0600
   37 H37      -2.9350    -0.5195    -2.7646 H      1 <0>       0.0700
   38 H38      -4.2940    -0.5477    -1.6154 H      1 <0>       0.0400
   39 H39      -3.4306     0.9755    -1.9354 H      1 <0>       0.0500
   40 H40      -4.3183    -2.0723    -0.5286 H      1 <0>       0.3900
   41 H41      -5.4971    -3.6399     1.3196 H      1 <0>       0.1100
   42 H42      -5.4567    -4.4978    -0.2395 H      1 <0>       0.1100
   43 H43      -4.9694    -3.5441     2.9076 H      1 <0>       0.0800
   44 H44      -5.8789    -4.4710     4.1250 H      1 <0>       0.0900
   45 H45      -4.1158    -4.2845     4.2830 H      1 <0>       0.0900
   46 H46      -4.0208   -10.2198     2.6410 H      1 <0>       0.1500
   47 H47      -3.7942   -12.0090     7.6187 H      1 <0>       0.0800
   48 H48      -3.1130   -10.6628     8.5631 H      1 <0>       0.0900
   49 H49      -4.8716   -10.9370     8.5452 H      1 <0>       0.0900
   50 H50      -3.4563    -7.5582     8.3685 H      1 <0>       0.0700
   51 H51      -5.0870    -7.0687     7.8491 H      1 <0>       0.0700
   52 H52      -4.8719    -8.5215     8.8548 H      1 <0>       0.0700
   53 H53      -4.6821    -6.1699     5.4351 H      1 <0>       0.1400
@<TRIPOS>BOND
   1    1    2 1
   2    1   32 1
   3    1   33 1
   4    1   34 1
   5    2    3 1
   6    2   35 1
   7    2   36 1
   8    3    4 1
   9    3    5 1
  10    3    6 1
  11    5   37 1
  12    5   38 1
  13    5   39 1
  14    6    7 1
  15    6    8 1
  16    6   29 1
  17    8    9 am
  18    8   40 1
  19    9   10 2
  20    9   11 1
  21   11   12 1
  22   11   41 1
  23   11   42 1
  24   12   27 1
  25   12   13 2
  26   13   14 1
  27   13   15 1
  28   14   43 1
  29   14   44 1
  30   14   45 1
  31   15   25 ar
  32   15   16 ar
  33   16   17 ar
  34   16   26 1
  35   17   18 ar
  36   17   46 1
  37   18   24 ar
  38   18   19 1
  39   19   20 1
  40   20   21 1
  41   20   22 2
  42   21   47 1
  43   21   48 1
  44   21   49 1
  45   22   23 1
  46   22   24 1
  47   23   50 1
  48   23   51 1
  49   23   52 1
  50   24   25 ar
  51   25   53 1
  52   26   27 1
  53   27   28 2
  54   29   30 ar
  55   29   31 ar
@<TRIPOS>MOLECULE
ZINC000001917476
36    38    1     0     0
SMALL
USER_CHARGES
@<TRIPOS>ATOM
1      C1     -0.0178    1.4608    0.0101 C.3      1 ZINC000001917476    0.0800
2      N2      0.0021   -0.0041    0.0020 N.am     1 ZINC000001917476   -1.1200
3      S3      0.7184   -0.8155   -1.2513 S.o2     1 ZINC000001917476    2.7100
4      O4      0.6032   -2.1997   -0.9511 O.2      1 ZINC000001917476   -0.9700
5      O5      0.2138   -0.2348   -2.4459 O.2      1 ZINC000001917476   -0.9600
6      C6      2.4386   -0.4372   -1.2021 C.ar     1 ZINC000001917476   -0.7200
7      C7      2.9278    0.6589   -1.8964 C.ar     1 ZINC000001917476   -0.0100
8      C8      4.2654    0.9646   -1.8665 C.ar     1 ZINC000001917476   -0.1300
9      C9      5.1644    0.1668   -1.1283 C.ar     1 ZINC000001917476    0.2200
10     N10     6.4971    0.3102   -0.9842 N.2      1 ZINC000001917476   -0.6300
11     C11     7.1203   -0.5495   -0.2534 C.2      1 ZINC000001917476    0.4700
12     N12     8.4785   -0.5386   -0.0092 N.pl3    1 ZINC000001917476   -1.0300
13     S13     9.4304    0.6404   -0.6771 S.o2     1 ZINC000001917476    2.6500
14     O14     9.4094    0.4253   -2.0815 O.2      1 ZINC000001917476   -1.0000
15     O15     9.0367    1.8645   -0.0723 O.2      1 ZINC000001917476   -1.0000
16     C16    11.0843    0.3352   -0.1516 C.ar     1 ZINC000001917476   -0.6400
17     C17    11.5522    0.9005    1.0200 C.ar     1 ZINC000001917476    0.0100
18     C18    12.8492    0.6619    1.4331 C.ar     1 ZINC000001917476   -0.1800
19     C19    13.6800   -0.1441    0.6733 C.ar     1 ZINC000001917476    0.1400
20     F20    14.9480   -0.3784    1.0764 F        1 ZINC000001917476   -0.1400
21     C21    13.2101   -0.7101   -0.4997 C.ar     1 ZINC000001917476   -0.1800
22     C22    11.9112   -0.4739   -0.9083 C.ar     1 ZINC000001917476    0.0100
23     S23     5.9946   -1.7374    0.3886 S.3      1 ZINC000001917476    0.0200
24     C24     4.6580   -0.9355   -0.4329 C.ar     1 ZINC000001917476   -0.2500
25     C25     3.2972   -1.2271   -0.4695 C.ar     1 ZINC000001917476    0.0700
26     H26     1.0048    1.8381    0.0023 H        1 ZINC000001917476    0.0600
27     H27    -0.5450    1.8219   -0.8730 H        1 ZINC000001917476    0.0700
28     H28    -0.5280    1.8123    0.9069 H        1 ZINC000001917476    0.0800
29     H29    -0.4044   -0.4986    0.7308 H        1 ZINC000001917476    0.4200
30     H30     2.2501    1.2775   -2.4660 H        1 ZINC000001917476    0.1400
31     H31     4.6322    1.8215   -2.4120 H        1 ZINC000001917476    0.1300
32     H32    10.9040    1.5292    1.6125 H        1 ZINC000001917476    0.1500
33     H33    13.2148    1.1042    2.3481 H        1 ZINC000001917476    0.1400
34     H34    13.8574   -1.3387   -1.0933 H        1 ZINC000001917476    0.1400
35     H35    11.5444   -0.9156   -1.8231 H        1 ZINC000001917476    0.1500
36     H36     2.9141   -2.0776    0.0749 H        1 ZINC000001917476    0.1300
@<TRIPOS>BOND
1     1     2     1
2     1     26    1
3     1     27    1
4     1     28    1
5     2     3     am
6     2     29    1
7     3     4     2
8     3     5     2
9     3     6     1
10    6     25    ar
11    6     7     ar
12    7     8     ar
13    7     30    1
14    8     9     ar
15    8     31    1
16    9     24    ar
17    9     10    1
18    10    11    2
19    11    12    1
20    11    23    1
21    12    13    1
22    13    14    2
23    13    15    2
24    13    16    1
25    16    22    ar
26    16    17    ar
27    17    18    ar
28    17    32    1
29    18    19    ar
30    18    33    1
31    19    20    1
32    19    21    ar
33    21    22    ar
34    21    34    1
35    22    35    1
36    23    24    1
37    24    25    ar
38    25    36    1
@<TRIPOS>SUBSTRUCTURE
1   ZINC000001917476 1     RESIDUE    1   A     ZIN   1

@<TRIPOS>MOLECULE
ZINC000001917476
37    39    1     0     0
SMALL
USER_CHARGES
@<TRIPOS>ATOM
1      C1     -0.0178    1.4608    0.0101 C.3      1 ZINC000001917476    0.0800
2      N2      0.0021   -0.0041    0.0020 N.am     1 ZINC000001917476   -1.1200
3      S3      0.7421   -0.8289    1.2326 S.o2     1 ZINC000001917476    2.7000
4      O4      0.5613   -2.2107    0.9551 O.2      1 ZINC000001917476   -0.9500
5      O5      2.0199   -0.2314    1.4046 O.2      1 ZINC000001917476   -0.9500
6      C6     -0.1659   -0.4941    2.7050 C.ar     1 ZINC000001917476   -0.6700
7      C7      0.1738    0.5919    3.4975 C.ar     1 ZINC000001917476   -0.0100
8      C8     -0.5253    0.8638    4.6468 C.ar     1 ZINC000001917476   -0.0900
9      C9     -1.6014    0.0411    5.0402 C.ar     1 ZINC000001917476    0.1700
10     N10    -2.3945    0.1505    6.1249 N.2      1 ZINC000001917476   -0.5200
11     C11    -3.3254   -0.7271    6.2819 C.2      1 ZINC000001917476    0.3700
12     N12    -4.2157   -0.7512    7.3360 N.am     1 ZINC000001917476   -1.0000
13     S13    -4.1314    0.4059    8.5177 S.o2     1 ZINC000001917476    2.6900
14     O14    -5.1882    0.1291    9.4264 O.2      1 ZINC000001917476   -0.9300
15     O15    -2.7678    0.4796    8.9105 O.2      1 ZINC000001917476   -0.9100
16     C16    -4.5160    1.9510    7.7631 C.ar     1 ZINC000001917476   -0.6900
17     C17    -3.5077    2.7220    7.2151 C.ar     1 ZINC000001917476    0.0300
18     C18    -3.8081    3.9340    6.6230 C.ar     1 ZINC000001917476   -0.1800
19     C19    -5.1195    4.3759    6.5784 C.ar     1 ZINC000001917476    0.1600
20     F20    -5.4144    5.5604    5.9994 F        1 ZINC000001917476   -0.1300
21     C21    -6.1286    3.6028    7.1272 C.ar     1 ZINC000001917476   -0.1800
22     C22    -5.8264    2.3888    7.7145 C.ar     1 ZINC000001917476    0.0100
23     S23    -3.3004   -1.8886    4.9625 S.3      1 ZINC000001917476    0.1200
24     C24    -1.9334   -1.0506    4.2320 C.ar     1 ZINC000001917476   -0.2100
25     C25    -1.2172   -1.3078    3.0663 C.ar     1 ZINC000001917476    0.0500
26     H26     1.0048    1.8381    0.0023 H        1 ZINC000001917476    0.0700
27     H27    -0.5450    1.8219   -0.8730 H        1 ZINC000001917476    0.0900
28     H28    -0.5280    1.8123    0.9069 H        1 ZINC000001917476    0.0600
29     H29    -0.4183   -0.4908   -0.7241 H        1 ZINC000001917476    0.4200
30     H30     0.9961    1.2293    3.2079 H        1 ZINC000001917476    0.1600
31     H31    -0.2495    1.7131    5.2543 H        1 ZINC000001917476    0.1500
32     H32    -4.8910   -1.4458    7.3847 H        1 ZINC000001917476    0.4500
33     H33    -2.4849    2.3770    7.2500 H        1 ZINC000001917476    0.1600
34     H34    -3.0202    4.5364    6.1956 H        1 ZINC000001917476    0.1500
35     H35    -7.1518    3.9466    7.0933 H        1 ZINC000001917476    0.1500
36     H36    -6.6133    1.7854    8.1423 H        1 ZINC000001917476    0.1500
37     H37    -1.4839   -2.1503    2.4454 H        1 ZINC000001917476    0.1500
@<TRIPOS>BOND
1     1     2     1
2     1     26    1
3     1     27    1
4     1     28    1
5     2     3     am
6     2     29    1
7     3     4     2
8     3     5     2
9     3     6     1
10    6     25    ar
11    6     7     ar
12    7     8     ar
13    7     30    1
14    8     9     ar
15    8     31    1
16    9     24    ar
17    9     10    1
18    10    11    2
19    11    12    1
20    11    23    1
21    12    13    am
22    12    32    1
23    13    14    2
24    13    15    2
25    13    16    1
26    16    22    ar
27    16    17    ar
28    17    18    ar
29    17    33    1
30    18    19    ar
31    18    34    1
32    19    20    1
33    19    21    ar
34    21    22    ar
35    21    35    1
36    22    36    1
37    23    24    1
38    24    25    ar
39    25    37    1
@<TRIPOS>SUBSTRUCTURE
1   ZINC000001917476 1     RESIDUE    1   A     ZIN   1
@<TRIPOS>MOLECULE
ZINC000006395738
53    55    1     0     0
SMALL
USER_CHARGES
@<TRIPOS>ATOM
1      C1     -0.0005    1.4503   -0.8357 C.3      1 ZINC000006395738   -0.1500
2      C2      0.0202   -0.0688   -0.6540 C.3      1 ZINC000006395738   -0.0900
3      C3      0.8330   -0.7063   -1.7831 C.3      1 ZINC000006395738   -0.1400
4      C4      0.8226   -2.2292   -1.6174 C.3      1 ZINC000006395738    0.1200
5      N5      1.3001   -2.5614   -0.2682 N.am     1 ZINC000006395738   -1.0000
6      S6      2.5515   -3.6246   -0.0540 S.o2     1 ZINC000006395738    2.7000
7      O7      2.4130   -4.1480    1.2598 O.2      1 ZINC000006395738   -0.9600
8      O8      2.5873   -4.4415   -1.2162 O.2      1 ZINC000006395738   -0.9600
9      C9      4.0416   -2.6844   -0.0605 C.ar     1 ZINC000006395738   -0.7100
10     C10     4.7057   -2.4521   -1.2510 C.ar     1 ZINC000006395738    0.0000
11     C11     5.8739   -1.7155   -1.2595 C.ar     1 ZINC000006395738   -0.1500
12     C12     6.3814   -1.2075   -0.0708 C.ar     1 ZINC000006395738    0.2300
13     N13     7.5645   -0.4605   -0.0760 N.am     1 ZINC000006395738   -0.6900
14     C14     7.8607    0.3252   -1.1303 C.2      1 ZINC000006395738    0.5300
15     O15     7.0592    0.4596   -2.0306 O.2      1 ZINC000006395738   -0.4600
16     C16     9.1878    1.0367   -1.1905 C.3      1 ZINC000006395738   -0.0800
17     H17     9.2860    1.7022   -0.3328 H        1 ZINC000006395738    0.0900
18     C18    10.3228    0.0103   -1.1776 C.3      1 ZINC000006395738   -0.0800
19     C19    11.6271    0.6779   -1.5017 C.2      1 ZINC000006395738   -0.1700
20     C20    11.7273    1.8436   -2.0554 C.2      1 ZINC000006395738   -0.1400
21     C21    10.5532    2.6948   -2.4415 C.3      1 ZINC000006395738   -0.0700
22     C22     9.2783    1.8504   -2.4876 C.3      1 ZINC000006395738   -0.1400
23     H23     9.3193    1.1711   -3.3391 H        1 ZINC000006395738    0.0700
24     C24     8.0778    2.7522   -2.6165 C.2      1 ZINC000006395738    0.5100
25     O25     7.9726    3.4933   -3.5790 O.co2    1 ZINC000006395738   -0.7100
26     O26     7.2118    2.7407   -1.7584 O.co2    1 ZINC000006395738   -0.6900
27     C27     5.7119   -1.4422    1.1230 C.ar     1 ZINC000006395738   -0.1800
28     C28     4.5415   -2.1755    1.1241 C.ar     1 ZINC000006395738    0.0000
29     C29     0.6465   -1.9319    0.8874 C.3      1 ZINC000006395738    0.1200
30     C30     0.6589   -0.4124    0.6936 C.3      1 ZINC000006395738   -0.1300
31     H31     1.0196    1.8333   -0.8089 H        1 ZINC000006395738    0.0600
32     H32    -0.4554    1.6952   -1.7955 H        1 ZINC000006395738    0.0500
33     H33    -0.5804    1.9045   -0.0323 H        1 ZINC000006395738    0.0500
34     H34    -1.0001   -0.4515   -0.6804 H        1 ZINC000006395738    0.0700
35     H35     0.3910   -0.4419   -2.7437 H        1 ZINC000006395738    0.0800
36     H36     1.8599   -0.3430   -1.7422 H        1 ZINC000006395738    0.0700
37     H37    -0.1925   -2.6041   -1.7484 H        1 ZINC000006395738    0.0700
38     H38     1.4801   -2.6821   -2.3595 H        1 ZINC000006395738    0.0900
39     H39     4.3105   -2.8474   -2.1751 H        1 ZINC000006395738    0.1400
40     H40     6.3925   -1.5350   -2.1895 H        1 ZINC000006395738    0.1400
41     H41     8.1715   -0.5080    0.6791 H        1 ZINC000006395738    0.4100
42     H42    10.3861   -0.4460   -0.1897 H        1 ZINC000006395738    0.0700
43     H43    10.1189   -0.7631   -1.9182 H        1 ZINC000006395738    0.0700
44     H44    12.5389    0.1532   -1.2574 H        1 ZINC000006395738    0.1000
45     H45    12.7175    2.2277   -2.2514 H        1 ZINC000006395738    0.1000
46     H46    10.4284    3.4920   -1.7087 H        1 ZINC000006395738    0.0700
47     H47    10.7324    3.1338   -3.4229 H        1 ZINC000006395738    0.0800
48     H48     6.1040   -1.0485    2.0491 H        1 ZINC000006395738    0.1300
49     H49     4.0203   -2.3583    2.0522 H        1 ZINC000006395738    0.1400
50     H50    -0.3830   -2.2826    0.9607 H        1 ZINC000006395738    0.0700
51     H51     1.1878   -2.1886    1.7980 H        1 ZINC000006395738    0.0900
52     H52     1.6874   -0.0518    0.7112 H        1 ZINC000006395738    0.0700
53     H53     0.0930    0.0613    1.4958 H        1 ZINC000006395738    0.0700
@<TRIPOS>BOND
1     1     2     1
2     1     31    1
3     1     32    1
4     1     33    1
5     2     30    1
6     2     3     1
7     2     34    1
8     3     4     1
9     3     35    1
10    3     36    1
11    4     5     1
12    4     37    1
13    4     38    1
14    5     6     am
15    5     29    1
16    6     7     2
17    6     8     2
18    6     9     1
19    9     28    ar
20    9     10    ar
21    10    11    ar
22    10    39    1
23    11    12    ar
24    11    40    1
25    12    13    1
26    12    27    ar
27    13    14    am
28    13    41    1
29    14    15    2
30    14    16    1
31    16    17    1
32    16    22    1
33    16    18    1
34    18    19    1
35    18    42    1
36    18    43    1
37    19    20    2
38    19    44    1
39    20    21    1
40    20    45    1
41    21    22    1
42    21    46    1
43    21    47    1
44    22    23    1
45    22    24    1
46    24    25    ar
47    24    26    ar
48    27    28    ar
49    27    48    1
50    28    49    1
51    29    30    1
52    29    50    1
53    29    51    1
54    30    52    1
55    30    53    1
@<TRIPOS>SUBSTRUCTURE
1   ZINC000006395738 1     RESIDUE    1   A     ZIN   1
@<TRIPOS>MOLECULE
ZINC000003230785
48    51    1     0     0
SMALL
USER_CHARGES
@<TRIPOS>ATOM
1      C1     -0.7202    1.4731    0.0023 C.3      1 ZINC000003230785   -0.0900
2      C2     -0.4922   -0.0165   -0.0068 C.ar     1 ZINC000003230785    0.1700
3      C3     -0.4533   -0.7102   -1.2000 C.ar     1 ZINC000003230785   -0.2700
4      C4     -0.2388   -2.0897   -1.1581 C.ar     1 ZINC000003230785    0.4700
5      N5     -0.1909   -2.8303   -2.3279 N.pl3    1 ZINC000003230785   -1.0600
6      S6      0.0641   -4.4653   -2.2629 S.o2     1 ZINC000003230785    2.6300
7      O7      1.3859   -4.6460   -1.7735 O.2      1 ZINC000003230785   -1.0200
8      O8     -1.0807   -5.0253   -1.6344 O.2      1 ZINC000003230785   -1.0200
9      C9      0.0620   -5.0598   -3.9215 C.ar     1 ZINC000003230785   -0.6400
10     C10    -1.1224   -5.4692   -4.5062 C.ar     1 ZINC000003230785    0.0000
11     C11    -1.1275   -5.9357   -5.8060 C.ar     1 ZINC000003230785   -0.1700
12     C12     0.0587   -5.9935   -6.5262 C.ar     1 ZINC000003230785    0.1800
13     N13     0.0569   -6.4650   -7.8427 N.am     1 ZINC000003230785   -0.6700
14     C14     1.1198   -7.1449   -8.3164 C.2      1 ZINC000003230785    0.5900
15     O15     2.0393   -7.4322   -7.5725 O.2      1 ZINC000003230785   -0.5000
16     C16     1.1685   -7.5383   -9.7273 C.2      1 ZINC000003230785   -0.2700
17     C17     2.1794   -8.2279  -10.3181 C.2      1 ZINC000003230785   -0.0300
18     C18     1.9796   -8.4751  -11.6731 C.2      1 ZINC000003230785   -0.1400
19     C19     0.8234   -7.9870  -12.1530 C.2      1 ZINC000003230785   -0.2200
20     C20     0.6898   -8.3022  -13.6377 C.3      1 ZINC000003230785   -0.0500
21     C21     2.1178   -8.6570  -14.0977 C.3      1 ZINC000003230785   -0.1200
22     C22     2.7501   -9.1757  -12.7915 C.3      1 ZINC000003230785   -0.0600
23     S23    -0.0728   -7.2004  -10.9206 S.3      1 ZINC000003230785    0.2200
24     C24     1.2466   -5.5816   -5.9360 C.ar     1 ZINC000003230785   -0.1400
25     C25     1.2439   -5.1108   -4.6377 C.ar     1 ZINC000003230785    0.0000
26     N26    -0.0809   -2.6806    0.0225 N.ar     1 ZINC000003230785   -0.6300
27     C27    -0.1255   -1.9790    1.1370 C.ar     1 ZINC000003230785    0.3500
28     C28     0.0585   -2.6856    2.4553 C.3      1 ZINC000003230785   -0.0800
29     N29    -0.3211   -0.6759    1.1306 N.ar     1 ZINC000003230785   -0.6000
30     H30     0.2388    1.9878   -0.0579 H        1 ZINC000003230785    0.0700
31     H31    -1.3363    1.7515   -0.8527 H        1 ZINC000003230785    0.0700
32     H32    -1.2279    1.7574    0.9240 H        1 ZINC000003230785    0.0700
33     H33    -0.5857   -0.1990   -2.1421 H        1 ZINC000003230785    0.1300
34     H34    -2.0444   -5.4243   -3.9455 H        1 ZINC000003230785    0.1400
35     H35    -2.0529   -6.2556   -6.2619 H        1 ZINC000003230785    0.1300
36     H36    -0.7092   -6.3026   -8.4150 H        1 ZINC000003230785    0.4100
37     H37     3.0594   -8.5546   -9.7841 H        1 ZINC000003230785    0.1500
38     H38     0.0218   -9.1506  -13.7866 H        1 ZINC000003230785    0.0900
39     H39     0.3229   -7.4301  -14.1789 H        1 ZINC000003230785    0.0800
40     H40     2.0997   -9.4371  -14.8588 H        1 ZINC000003230785    0.0800
41     H41     2.6417   -7.7726  -14.4603 H        1 ZINC000003230785    0.0800
42     H42     3.8058   -8.9079  -12.7495 H        1 ZINC000003230785    0.0800
43     H43     2.6293  -10.2563  -12.7153 H        1 ZINC000003230785    0.0800
44     H44     2.1707   -5.6253   -6.4933 H        1 ZINC000003230785    0.1400
45     H45     2.1673   -4.7903   -4.1782 H        1 ZINC000003230785    0.1400
46     H46     1.1169   -2.6997    2.7154 H        1 ZINC000003230785    0.0700
47     H47    -0.4991   -2.1597    3.2304 H        1 ZINC000003230785    0.0700
48     H48    -0.3093   -3.7084    2.3738 H        1 ZINC000003230785    0.0800
@<TRIPOS>BOND
1     1     2     1
2     1     30    1
3     1     31    1
4     1     32    1
5     2     29    ar
6     2     3     ar
7     3     4     ar
8     3     33    1
9     4     5     1
10    4     26    ar
11    5     6     1
12    6     7     2
13    6     8     2
14    6     9     1
15    9     25    ar
16    9     10    ar
17    10    11    ar
18    10    34    1
19    11    12    ar
20    11    35    1
21    12    13    1
22    12    24    ar
23    13    14    am
24    13    36    1
25    14    15    2
26    14    16    1
27    16    23    1
28    16    17    2
29    17    18    1
30    17    37    1
31    18    22    1
32    18    19    2
33    19    20    1
34    19    23    1
35    20    21    1
36    20    38    1
37    20    39    1
38    21    22    1
39    21    40    1
40    21    41    1
41    22    42    1
42    22    43    1
43    24    25    ar
44    24    44    1
45    25    45    1
46    26    27    ar
47    27    28    1
48    27    29    ar
49    28    46    1
50    28    47    1
51    28    48    1
@<TRIPOS>SUBSTRUCTURE
1   ZINC000003230785 1     RESIDUE    1   A     ZIN   1

@<TRIPOS>MOLECULE
ZINC000003230785
49    52    1     0     0
SMALL
USER_CHARGES
@<TRIPOS>ATOM
1      C1      0.4304    1.1767    0.7416 C.3      1 ZINC000003230785   -0.1100
2      C2      0.3584   -0.3153    0.5422 C.ar     1 ZINC000003230785    0.2100
3      C3      0.2707   -0.8469   -0.7291 C.ar     1 ZINC000003230785   -0.2600
4      C4      0.2068   -2.2356   -0.8640 C.ar     1 ZINC000003230785    0.4300
5      N5      0.1184   -2.8176   -2.1181 N.am     1 ZINC000003230785   -1.0300
6      S6      0.0434   -4.4655   -2.2627 S.o2     1 ZINC000003230785    2.6900
7      O7     -0.0743   -4.7415   -3.6516 O.2      1 ZINC000003230785   -0.9500
8      O8      1.0874   -4.9874   -1.4523 O.2      1 ZINC000003230785   -0.9200
9      C9     -1.4685   -4.9858   -1.5223 C.ar     1 ZINC000003230785   -0.6900
10     C10    -1.5047   -5.3020   -0.1765 C.ar     1 ZINC000003230785    0.0300
11     C11    -2.6881   -5.7100    0.4069 C.ar     1 ZINC000003230785   -0.1700
12     C12    -3.8427   -5.8027   -0.3595 C.ar     1 ZINC000003230785    0.2100
13     N13    -5.0427   -6.2152    0.2282 N.am     1 ZINC000003230785   -0.6700
14     C14    -5.9318   -6.9323   -0.4871 C.2      1 ZINC000003230785    0.6000
15     O15    -5.6505   -7.3032   -1.6117 O.2      1 ZINC000003230785   -0.5000
16     C16    -7.2373   -7.2656    0.0893 C.2      1 ZINC000003230785   -0.2800
17     C17    -8.2108   -7.9843   -0.5291 C.2      1 ZINC000003230785   -0.0200
18     C18    -9.3584   -8.1603    0.2384 C.2      1 ZINC000003230785   -0.1400
19     C19    -9.2972   -7.5875    1.4523 C.2      1 ZINC000003230785   -0.2100
20     C20   -10.5914   -7.8293    2.2191 C.3      1 ZINC000003230785   -0.0500
21     C21   -11.6171   -8.2433    1.1453 C.3      1 ZINC000003230785   -0.1200
22     C22   -10.7087   -8.8534    0.0601 C.3      1 ZINC000003230785   -0.0600
23     S23    -7.7892   -6.8066    1.6905 S.3      1 ZINC000003230785    0.2200
24     C24    -3.8029   -5.4844   -1.7109 C.ar     1 ZINC000003230785   -0.1500
25     C25    -2.6175   -5.0716   -2.2869 C.ar     1 ZINC000003230785    0.0000
26     N26     0.2326   -2.9901    0.2306 N.ar     1 ZINC000003230785   -0.5600
27     C27     0.3171   -2.4397    1.4249 C.ar     1 ZINC000003230785    0.3700
28     C28     0.3442   -3.3291    2.6411 C.3      1 ZINC000003230785   -0.0900
29     N29     0.3840   -1.1335    1.5850 N.ar     1 ZINC000003230785   -0.5400
30     H30     1.4729    1.4947    0.7317 H        1 ZINC000003230785    0.0900
31     H31    -0.1097    1.6771   -0.0621 H        1 ZINC000003230785    0.0800
32     H32    -0.0199    1.4374    1.6993 H        1 ZINC000003230785    0.0900
33     H33     0.2516   -0.2050   -1.5974 H        1 ZINC000003230785    0.1500
34     H34     0.1004   -2.2598   -2.9114 H        1 ZINC000003230785    0.4400
35     H35    -0.6065   -5.2300    0.4188 H        1 ZINC000003230785    0.1600
36     H36    -2.7156   -5.9572    1.4579 H        1 ZINC000003230785    0.1400
37     H37    -5.2351   -5.9851    1.1506 H        1 ZINC000003230785    0.4100
38     H38    -8.1037   -8.3831   -1.5270 H        1 ZINC000003230785    0.1500
39     H39   -10.4578   -8.6315    2.9450 H        1 ZINC000003230785    0.0900
40     H40   -10.9130   -6.9151    2.7181 H        1 ZINC000003230785    0.0800
41     H41   -12.3118   -8.9870    1.5357 H        1 ZINC000003230785    0.0900
42     H42   -12.1528   -7.3746    0.7623 H        1 ZINC000003230785    0.0800
43     H43   -11.1121   -8.6474   -0.9313 H        1 ZINC000003230785    0.0800
44     H44   -10.6059   -9.9278    0.2123 H        1 ZINC000003230785    0.0800
45     H45    -4.6990   -5.5555   -2.3096 H        1 ZINC000003230785    0.1400
46     H46    -2.5859   -4.8239   -3.3377 H        1 ZINC000003230785    0.1400
47     H47     1.3762   -3.5852    2.8810 H        1 ZINC000003230785    0.0900
48     H48    -0.1056   -2.8052    3.4845 H        1 ZINC000003230785    0.0900
49     H49    -0.2183   -4.2403    2.4375 H        1 ZINC000003230785    0.0900
@<TRIPOS>BOND
1     1     2     1
2     1     30    1
3     1     31    1
4     1     32    1
5     2     29    ar
6     2     3     ar
7     3     4     ar
8     3     33    1
9     4     5     1
10    4     26    ar
11    5     6     am
12    5     34    1
13    6     7     2
14    6     8     2
15    6     9     1
16    9     25    ar
17    9     10    ar
18    10    11    ar
19    10    35    1
20    11    12    ar
21    11    36    1
22    12    13    1
23    12    24    ar
24    13    14    am
25    13    37    1
26    14    15    2
27    14    16    1
28    16    23    1
29    16    17    2
30    17    18    1
31    17    38    1
32    18    22    1
33    18    19    2
34    19    20    1
35    19    23    1
36    20    21    1
37    20    39    1
38    20    40    1
39    21    22    1
40    21    41    1
41    21    42    1
42    22    43    1
43    22    44    1
44    24    25    ar
45    24    45    1
46    25    46    1
47    26    27    ar
48    27    28    1
49    27    29    ar
50    28    47    1
51    28    48    1
52    28    49    1
@<TRIPOS>SUBSTRUCTURE
1   ZINC000003230785 1     RESIDUE    1   A     ZIN   1
@<TRIPOS>MOLECULE
ZINC000002104075
57    60    1     0     0
SMALL
USER_CHARGES
@<TRIPOS>ATOM
1      C1      0.9361    2.2637   -1.3262 C.3      1 ZINC000002104075   -0.1500
2      C2      0.8426    0.7600   -1.0595 C.3      1 ZINC000002104075   -0.1300
3      C3      1.4050   -0.0065   -2.2583 C.3      1 ZINC000002104075   -0.0800
4      H4      0.8879    0.3070   -3.1651 H        1 ZINC000002104075    0.0700
5      C5      2.9001    0.2879   -2.3960 C.3      1 ZINC000002104075   -0.1400
6      C6      1.1982   -1.5076   -2.0464 C.3      1 ZINC000002104075    0.0800
7      H7      1.7153   -1.8212   -1.1395 H        1 ZINC000002104075    0.0800
8      N8      1.7367   -2.2416   -3.1942 N.am     1 ZINC000002104075   -0.6900
9      C9      2.1338   -3.5214   -3.0497 C.2      1 ZINC000002104075    0.5200
10     O10     2.0453   -4.0654   -1.9694 O.2      1 ZINC000002104075   -0.5400
11     C11     2.6878   -4.2763   -4.2304 C.3      1 ZINC000002104075   -0.0900
12     C12     3.0543   -5.6749   -3.8053 C.2      1 ZINC000002104075   -0.1900
13     C13     2.1632   -6.6890   -3.9527 C.2      1 ZINC000002104075    0.0400
14     C14     0.7967   -6.4465   -4.5400 C.3      1 ZINC000002104075   -0.1300
15     C15     2.5767   -8.0285   -3.5210 C.ar     1 ZINC000002104075   -0.1400
16     C16     3.8652   -8.2057   -2.9777 C.ar     1 ZINC000002104075    0.1700
17     C17     4.2703   -9.4652   -2.5650 C.ar     1 ZINC000002104075   -0.1300
18     C18     3.4151  -10.5493   -2.6852 C.ar     1 ZINC000002104075    0.1000
19     O19     3.5389  -11.8572   -2.3742 O.3      1 ZINC000002104075   -0.1900
20     C20     2.4198  -12.5348   -2.6807 C.2      1 ZINC000002104075    0.0300
21     C21     1.5112  -11.6982   -3.2069 C.2      1 ZINC000002104075   -0.1600
22     C22     0.1360  -12.0979   -3.6713 C.3      1 ZINC000002104075   -0.0500
23     C23     0.1008  -13.6237   -3.8263 C.3      1 ZINC000002104075   -0.1200
24     C24     0.6665  -14.2730   -2.5599 C.3      1 ZINC000002104075   -0.1200
25     C25     2.1747  -14.0134   -2.4805 C.3      1 ZINC000002104075   -0.0400
26     C26     2.1251  -10.3705   -3.2299 C.ar     1 ZINC000002104075   -0.1400
27     C27     1.7091   -9.1134   -3.6458 C.ar     1 ZINC000002104075    0.0000
28     O28     4.7055   -7.1562   -2.8579 O.3      1 ZINC000002104075   -0.2600
29     C29     4.3260   -5.9390   -3.2579 C.2      1 ZINC000002104075    0.5200
30     O30     5.1099   -5.0153   -3.1349 O.2      1 ZINC000002104075   -0.4600
31     C31    -0.2744   -1.7976   -1.9107 C.2      1 ZINC000002104075    0.4900
32     O32    -0.8620   -2.3958   -2.7958 O.co2    1 ZINC000002104075   -0.6900
33     O33    -0.8782   -1.4341   -0.9158 O.co2    1 ZINC000002104075   -0.6900
34     H34     1.9790    2.5415   -1.4782 H        1 ZINC000002104075    0.0500
35     H35     0.3604    2.5110   -2.2181 H        1 ZINC000002104075    0.0500
36     H36     0.5354    2.8097   -0.4721 H        1 ZINC000002104075    0.0500
37     H37     1.4182    0.5127   -0.1675 H        1 ZINC000002104075    0.0500
38     H38    -0.2004    0.4821   -0.9074 H        1 ZINC000002104075    0.1000
39     H39     3.4172   -0.0257   -1.4892 H        1 ZINC000002104075    0.0500
40     H40     3.3007   -0.2582   -3.2500 H        1 ZINC000002104075    0.0500
41     H41     3.0474    1.3573   -2.5469 H        1 ZINC000002104075    0.0500
42     H42     1.8075   -1.8064   -4.0582 H        1 ZINC000002104075    0.3900
43     H43     1.9358   -4.3213   -5.0182 H        1 ZINC000002104075    0.1100
44     H44     3.5754   -3.7658   -4.6041 H        1 ZINC000002104075    0.1100
45     H45     0.6568   -5.3783   -4.7058 H        1 ZINC000002104075    0.0900
46     H46     0.7099   -6.9759   -5.4888 H        1 ZINC000002104075    0.0900
47     H47     0.0350   -6.8100   -3.8501 H        1 ZINC000002104075    0.0900
48     H48     5.2571   -9.6027   -2.1482 H        1 ZINC000002104075    0.1500
49     H49    -0.6043  -11.7873   -2.9341 H        1 ZINC000002104075    0.0800
50     H50    -0.0780  -11.6271   -4.6308 H        1 ZINC000002104075    0.0800
51     H51    -0.9284  -13.9508   -3.9744 H        1 ZINC000002104075    0.0700
52     H52     0.7037  -13.9163   -4.6859 H        1 ZINC000002104075    0.0700
53     H53     0.1781  -13.8463   -1.6839 H        1 ZINC000002104075    0.0700
54     H54     0.4840  -15.3472   -2.5900 H        1 ZINC000002104075    0.0800
55     H55     2.6849  -14.5778   -3.2611 H        1 ZINC000002104075    0.0900
56     H56     2.5474  -14.3171   -1.5023 H        1 ZINC000002104075    0.0900
57     H57     0.7220   -8.9764   -4.0621 H        1 ZINC000002104075    0.1500
@<TRIPOS>BOND
1     1     2     1
2     1     34    1
3     1     35    1
4     1     36    1
5     2     3     1
6     2     37    1
7     2     38    1
8     3     4     1
9     3     5     1
10    3     6     1
11    5     39    1
12    5     40    1
13    5     41    1
14    6     7     1
15    6     8     1
16    6     31    1
17    8     9     am
18    8     42    1
19    9     10    2
20    9     11    1
21    11    12    1
22    11    43    1
23    11    44    1
24    12    29    1
25    12    13    2
26    13    14    1
27    13    15    1
28    14    45    1
29    14    46    1
30    14    47    1
31    15    27    ar
32    15    16    ar
33    16    17    ar
34    16    28    1
35    17    18    ar
36    17    48    1
37    18    26    ar
38    18    19    1
39    19    20    1
40    20    25    1
41    20    21    2
42    21    22    1
43    21    26    1
44    22    23    1
45    22    49    1
46    22    50    1
47    23    24    1
48    23    51    1
49    23    52    1
50    24    25    1
51    24    53    1
52    24    54    1
53    25    55    1
54    25    56    1
55    26    27    ar
56    27    57    1
57    28    29    1
58    29    30    2
59    31    32    ar
60    31    33    ar
@<TRIPOS>SUBSTRUCTURE
1   ZINC000002104075 1     RESIDUE    1   A     ZIN   1
@<TRIPOS>MOLECULE
ZINC000002114209
52    54    1     0     0
SMALL
USER_CHARGES
@<TRIPOS>ATOM
1      C1     -0.0184    1.5028    0.0103 C.3      1 ZINC000002114209   -0.0900
2      C2      0.0021   -0.0041    0.0020 C.2      1 ZINC000002114209   -0.2400
3      C3     -1.1640   -0.7009    0.0038 C.2      1 ZINC000002114209    0.0400
4      C4     -2.4917    0.0120    0.0135 C.3      1 ZINC000002114209   -0.1300
5      C5     -1.0958   -2.1637   -0.0044 C.ar     1 ZINC000002114209   -0.1900
6      C6     -2.2605   -2.9393   -0.0036 C.ar     1 ZINC000002114209   -0.0200
7      C7     -2.1684   -4.3012   -0.0118 C.ar     1 ZINC000002114209   -0.2200
8      C8     -0.9222   -4.9242   -0.0205 C.ar     1 ZINC000002114209    0.1900
9      O9     -0.8473   -6.2796   -0.0282 O.3      1 ZINC000002114209   -0.2700
10     C10    -2.0828   -6.9977   -0.0267 C.3      1 ZINC000002114209    0.0400
11     C11    -1.8032   -8.4785   -0.0358 C.2      1 ZINC000002114209    0.5200
12     O12    -0.6586   -8.8794   -0.0430 O.2      1 ZINC000002114209   -0.5200
13     N13    -2.8250   -9.3572   -0.0361 N.am     1 ZINC000002114209   -0.6900
14     C14    -2.5532  -10.7968   -0.0451 C.3      1 ZINC000002114209    0.0900
15     H15    -1.6612  -10.9944   -0.6395 H        1 ZINC000002114209    0.0900
16     C16    -3.7459  -11.5372   -0.6535 C.3      1 ZINC000002114209   -0.0800
17     C17    -3.8914  -11.1500   -2.1026 C.ar     1 ZINC000002114209   -0.0600
18     C18    -4.6744  -10.0659   -2.4528 C.ar     1 ZINC000002114209   -0.1100
19     C19    -4.8083   -9.7102   -3.7817 C.ar     1 ZINC000002114209   -0.1100
20     C20    -4.1585  -10.4395   -4.7615 C.ar     1 ZINC000002114209   -0.0500
21     Cl21   -4.3257   -9.9931   -6.4308 Cl       1 ZINC000002114209   -0.0800
22     C22    -3.3750  -11.5244   -4.4104 C.ar     1 ZINC000002114209   -0.1100
23     C23    -3.2373  -11.8756   -3.0808 C.ar     1 ZINC000002114209   -0.1000
24     C24    -2.3322  -11.2750    1.3668 C.2      1 ZINC000002114209    0.4900
25     O25    -2.5729  -10.5354    2.3057 O.co2    1 ZINC000002114209   -0.6800
26     O26    -1.9126  -12.4016    1.5703 O.co2    1 ZINC000002114209   -0.6900
27     C27     0.2412   -4.1717   -0.0220 C.ar     1 ZINC000002114209   -0.1300
28     C28     1.5839   -4.8559   -0.0325 C.3      1 ZINC000002114209   -0.1000
29     C29     0.1660   -2.7874   -0.0138 C.ar     1 ZINC000002114209    0.1800
30     O30     1.2874   -2.0353   -0.0155 O.3      1 ZINC000002114209   -0.2600
31     C31     1.2316   -0.6942   -0.0134 C.2      1 ZINC000002114209    0.5200
32     O32     2.2696   -0.0571   -0.0151 O.2      1 ZINC000002114209   -0.4700
33     H33     1.0042    1.8801    0.0026 H        1 ZINC000002114209    0.0800
34     H34    -0.5455    1.8639   -0.8728 H        1 ZINC000002114209    0.0700
35     H35    -0.5286    1.8543    0.9071 H        1 ZINC000002114209    0.0700
36     H36    -2.3256    1.0892    0.0182 H        1 ZINC000002114209    0.0800
37     H37    -3.0589   -0.2643   -0.8754 H        1 ZINC000002114209    0.0900
38     H38    -3.0508   -0.2734    0.9046 H        1 ZINC000002114209    0.0900
39     H39    -3.2292   -2.4619    0.0039 H        1 ZINC000002114209    0.1400
40     H40    -3.0674   -4.8997   -0.0111 H        1 ZINC000002114209    0.1400
41     H41    -2.6512   -6.7408    0.8672 H        1 ZINC000002114209    0.1000
42     H42    -2.6590   -6.7312   -0.9127 H        1 ZINC000002114209    0.0900
43     H43    -3.7405   -9.0366   -0.0304 H        1 ZINC000002114209    0.3900
44     H44    -3.5823  -12.6123   -0.5794 H        1 ZINC000002114209    0.1000
45     H45    -4.6538  -11.2697   -0.1130 H        1 ZINC000002114209    0.0800
46     H46    -5.1819   -9.4969   -1.6879 H        1 ZINC000002114209    0.1300
47     H47    -5.4203   -8.8634   -4.0552 H        1 ZINC000002114209    0.1300
48     H48    -2.8677  -12.0942   -5.1749 H        1 ZINC000002114209    0.1300
49     H49    -2.6255  -12.7223   -2.8065 H        1 ZINC000002114209    0.1300
50     H50     1.9026   -5.0150   -1.0627 H        1 ZINC000002114209    0.0700
51     H51     2.3142   -4.2307    0.4813 H        1 ZINC000002114209    0.0700
52     H52     1.5061   -5.8167    0.4763 H        1 ZINC000002114209    0.0800
@<TRIPOS>BOND
1     1     2     1
2     1     33    1
3     1     34    1
4     1     35    1
5     2     31    1
6     2     3     2
7     3     4     1
8     3     5     1
9     4     36    1
10    4     37    1
11    4     38    1
12    5     29    ar
13    5     6     ar
14    6     7     ar
15    6     39    1
16    7     8     ar
17    7     40    1
18    8     9     1
19    8     27    ar
20    9     10    1
21    10    11    1
22    10    41    1
23    10    42    1
24    11    12    2
25    11    13    am
26    13    14    1
27    13    43    1
28    14    15    1
29    14    16    1
30    14    24    1
31    16    17    1
32    16    44    1
33    16    45    1
34    17    23    ar
35    17    18    ar
36    18    19    ar
37    18    46    1
38    19    20    ar
39    19    47    1
40    20    21    1
41    20    22    ar
42    22    23    ar
43    22    48    1
44    23    49    1
45    24    25    ar
46    24    26    ar
47    27    28    1
48    27    29    ar
49    28    50    1
50    28    51    1
51    28    52    1
52    29    30    1
53    30    31    1
54    31    32    2
@<TRIPOS>SUBSTRUCTURE
1   ZINC000002114209 1     RESIDUE    1   A     ZIN   1
@<TRIPOS>MOLECULE
ZINC000004249142
46    49    1     0     0
SMALL
USER_CHARGES
@<TRIPOS>ATOM
1      C1     -6.9714  -11.8323   -2.8587 C.3      1 ZINC000004249142   -0.1700
2      C2     -5.8018  -11.0813   -2.2765 C.2      1 ZINC000004249142    0.5100
3      O3     -4.8952  -11.6875   -1.7458 O.2      1 ZINC000004249142   -0.5200
4      N4     -5.7632   -9.7358   -2.3454 N.am     1 ZINC000004249142   -0.6800
5      C5     -4.7278   -9.0326   -1.7198 C.ar     1 ZINC000004249142    0.2000
6      C6     -4.9795   -7.7994   -1.1330 C.ar     1 ZINC000004249142   -0.1700
7      C7     -3.9553   -7.1078   -0.5164 C.ar     1 ZINC000004249142    0.0100
8      C8     -2.6802   -7.6419   -0.4833 C.ar     1 ZINC000004249142   -0.6900
9      S9     -1.3763   -6.7561    0.3039 S.o2     1 ZINC000004249142    2.6900
10     O10    -0.1772   -7.1349   -0.3579 O.2      1 ZINC000004249142   -0.9500
11     O11    -1.8133   -5.4081    0.4092 O.2      1 ZINC000004249142   -0.9500
12     N12    -1.2577   -7.3315    1.8522 N.am     1 ZINC000004249142   -1.0600
13     C13    -2.3268   -7.1780    2.7382 C.ar     1 ZINC000004249142    0.1400
14     C14    -2.9854   -5.9573    2.8259 C.ar     1 ZINC000004249142   -0.1500
15     C15    -4.0410   -5.8035    3.6998 C.ar     1 ZINC000004249142   -0.0700
16     C16    -4.4472   -6.8735    4.4956 C.ar     1 ZINC000004249142   -0.0100
17     C17    -5.5829   -6.7106    5.4361 C.2      1 ZINC000004249142    0.0600
18     C18    -6.0721   -7.6598    6.2639 C.2      1 ZINC000004249142   -0.0100
19     N19    -7.1313   -7.0878    6.9669 N.pl3    1 ZINC000004249142   -0.4900
20     C20    -8.0802   -7.5209    7.9887 C.3      1 ZINC000004249142    0.1000
21     C21    -9.0518   -6.4121    8.3917 C.3      1 ZINC000004249142   -0.1200
22     S22    -8.5601   -4.9932    7.3670 S.3      1 ZINC000004249142    0.0100
23     C23    -7.2345   -5.8148    6.5308 C.2      1 ZINC000004249142    0.2000
24     N24    -6.3083   -5.5834    5.6211 N.2      1 ZINC000004249142   -0.4400
25     C25    -3.7851   -8.0969    4.4059 C.ar     1 ZINC000004249142   -0.0900
26     C26    -2.7337   -8.2478    3.5265 C.ar     1 ZINC000004249142   -0.1300
27     C27    -2.4264   -8.8698   -1.0663 C.ar     1 ZINC000004249142    0.0000
28     C28    -3.4475   -9.5690   -1.6795 C.ar     1 ZINC000004249142   -0.1400
29     H29    -6.8269  -12.9023   -2.7091 H        1 ZINC000004249142    0.1000
30     H30    -7.8892  -11.5168   -2.3625 H        1 ZINC000004249142    0.0900
31     H31    -7.0440  -11.6212   -3.9255 H        1 ZINC000004249142    0.0900
32     H32    -6.4532   -9.2550   -2.8287 H        1 ZINC000004249142    0.4200
33     H33    -5.9750   -7.3815   -1.1591 H        1 ZINC000004249142    0.1400
34     H34    -4.1505   -6.1487   -0.0598 H        1 ZINC000004249142    0.1500
35     H35    -0.4459   -7.7751    2.1439 H        1 ZINC000004249142    0.4300
36     H36    -2.6701   -5.1285    2.2095 H        1 ZINC000004249142    0.1600
37     H37    -4.5523   -4.8547    3.7679 H        1 ZINC000004249142    0.1400
38     H38    -5.7104   -8.6727    6.3622 H        1 ZINC000004249142    0.1800
39     H39    -8.6500   -8.3672    7.6051 H        1 ZINC000004249142    0.1000
40     H40    -7.5265   -7.8426    8.8708 H        1 ZINC000004249142    0.1000
41     H41   -10.0780   -6.7052    8.1700 H        1 ZINC000004249142    0.1300
42     H42    -8.9420   -6.1747    9.4498 H        1 ZINC000004249142    0.1300
43     H43    -4.0979   -8.9271    5.0218 H        1 ZINC000004249142    0.1300
44     H44    -2.2204   -9.1955    3.4567 H        1 ZINC000004249142    0.1300
45     H45    -1.4294   -9.2842   -1.0388 H        1 ZINC000004249142    0.1400
46     H46    -3.2486  -10.5280   -2.1347 H        1 ZINC000004249142    0.1500
@<TRIPOS>BOND
1     1     2     1
2     1     29    1
3     1     30    1
4     1     31    1
5     2     3     2
6     2     4     am
7     4     5     1
8     4     32    1
9     5     28    ar
10    5     6     ar
11    6     7     ar
12    6     33    1
13    7     8     ar
14    7     34    1
15    8     9     1
16    8     27    ar
17    9     10    2
18    9     11    2
19    9     12    am
20    12    13    1
21    12    35    1
22    13    26    ar
23    13    14    ar
24    14    15    ar
25    14    36    1
26    15    16    ar
27    15    37    1
28    16    17    1
29    16    25    ar
30    17    24    1
31    17    18    2
32    18    19    1
33    18    38    1
34    19    23    1
35    19    20    1
36    20    21    1
37    20    39    1
38    20    40    1
39    21    22    1
40    21    41    1
41    21    42    1
42    22    23    1
43    23    24    2
44    25    26    ar
45    25    43    1
46    26    44    1
47    27    28    ar
48    27    45    1
49    28    46    1
@<TRIPOS>SUBSTRUCTURE
1   ZINC000004249142 1     RESIDUE    1   A     ZIN   1

@<TRIPOS>MOLECULE
ZINC000004249142
45    48    1     0     0
SMALL
USER_CHARGES
@<TRIPOS>ATOM
1      C1     -0.6166    1.5067   -2.1654 C.3      1 ZINC000004249142   -0.1700
2      C2     -0.6035   -0.0002   -2.1695 C.2      1 ZINC000004249142    0.5100
3      O3     -1.1362   -0.6088   -3.0733 O.2      1 ZINC000004249142   -0.5200
4      N4      0.0001   -0.6716   -1.1688 N.am     1 ZINC000004249142   -0.6800
5      C5     -0.0708   -2.0682   -1.1208 C.ar     1 ZINC000004249142    0.1700
6      C6     -0.1517   -2.7192    0.1032 C.ar     1 ZINC000004249142   -0.1700
7      C7     -0.2215   -4.0979    0.1472 C.ar     1 ZINC000004249142   -0.0100
8      C8     -0.2103   -4.8300   -1.0259 C.ar     1 ZINC000004249142   -0.6300
9      S9     -0.2989   -6.5887   -0.9655 S.o2     1 ZINC000004249142    2.6000
10     O10     0.2720   -7.0611   -2.1779 O.2      1 ZINC000004249142   -1.0300
11     O11     0.1764   -6.9705    0.3181 O.2      1 ZINC000004249142   -1.0300
12     N12    -1.9022   -7.0007   -1.0119 N.pl3    1 ZINC000004249142   -1.0900
13     C13    -2.2791   -8.3454   -0.9775 C.ar     1 ZINC000004249142    0.2900
14     C14    -1.3079   -9.3364   -0.8986 C.ar     1 ZINC000004249142   -0.2700
15     C15    -1.6777  -10.6644   -0.8645 C.ar     1 ZINC000004249142   -0.0300
16     C16    -3.0268  -11.0125   -0.9093 C.ar     1 ZINC000004249142   -0.1400
17     C17    -3.4271  -12.4406   -0.8723 C.2      1 ZINC000004249142    0.1200
18     C18    -4.6922  -12.9130   -0.9142 C.2      1 ZINC000004249142   -0.0500
19     N19    -4.6152  -14.3037   -0.8559 N.pl3    1 ZINC000004249142   -0.4900
20     C20    -5.5598  -15.4172   -0.8572 C.3      1 ZINC000004249142    0.1000
21     C21    -4.8632  -16.7748   -0.7706 C.3      1 ZINC000004249142   -0.1200
22     S22    -3.0933  -16.3650   -0.7021 S.3      1 ZINC000004249142   -0.0100
23     C23    -3.3029  -14.6097   -0.7811 C.2      1 ZINC000004249142    0.1900
24     N24    -2.5895  -13.5007   -0.7965 N.2      1 ZINC000004249142   -0.4500
25     C25    -3.9992  -10.0168   -0.9885 C.ar     1 ZINC000004249142   -0.0600
26     C26    -3.6250   -8.6899   -1.0166 C.ar     1 ZINC000004249142   -0.1900
27     C27    -0.1303   -4.1847   -2.2463 C.ar     1 ZINC000004249142   -0.0100
28     C28    -0.0660   -2.8060   -2.2973 C.ar     1 ZINC000004249142   -0.1500
29     H29    -1.5024    1.8609   -1.6381 H        1 ZINC000004249142    0.1000
30     H30     0.2773    1.8765   -1.6631 H        1 ZINC000004249142    0.0800
31     H31    -0.6343    1.8727   -3.1920 H        1 ZINC000004249142    0.1000
32     H32     0.4836   -0.1866   -0.4819 H        1 ZINC000004249142    0.4100
33     H33    -0.1598   -2.1480    1.0197 H        1 ZINC000004249142    0.1300
34     H34    -0.2845   -4.6047    1.0988 H        1 ZINC000004249142    0.1400
35     H35    -0.2628   -9.0662   -0.8643 H        1 ZINC000004249142    0.1000
36     H36    -0.9226  -11.4342   -0.8036 H        1 ZINC000004249142    0.1100
37     H37    -5.5946  -12.3234   -0.9802 H        1 ZINC000004249142    0.1800
38     H38    -6.2322  -15.3106   -0.0059 H        1 ZINC000004249142    0.1000
39     H39    -6.1477  -15.3801   -1.7744 H        1 ZINC000004249142    0.1000
40     H40    -5.1677  -17.3027    0.1331 H        1 ZINC000004249142    0.1200
41     H41    -5.0823  -17.3730   -1.6550 H        1 ZINC000004249142    0.1200
42     H42    -5.0449  -10.2843   -1.0237 H        1 ZINC000004249142    0.1100
43     H43    -4.3780   -7.9182   -1.0779 H        1 ZINC000004249142    0.1200
44     H44    -0.1218   -4.7593   -3.1608 H        1 ZINC000004249142    0.1400
45     H45    -0.0035   -2.3027   -3.2508 H        1 ZINC000004249142    0.1400
@<TRIPOS>BOND
1     1     2     1
2     1     29    1
3     1     30    1
4     1     31    1
5     2     3     2
6     2     4     am
7     4     5     1
8     4     32    1
9     5     28    ar
10    5     6     ar
11    6     7     ar
12    6     33    1
13    7     8     ar
14    7     34    1
15    8     9     1
16    8     27    ar
17    9     10    2
18    9     11    2
19    9     12    1
20    12    13    1
21    13    26    ar
22    13    14    ar
23    14    15    ar
24    14    35    1
25    15    16    ar
26    15    36    1
27    16    17    1
28    16    25    ar
29    17    24    1
30    17    18    2
31    18    19    1
32    18    37    1
33    19    23    1
34    19    20    1
35    20    21    1
36    20    38    1
37    20    39    1
38    21    22    1
39    21    40    1
40    21    41    1
41    22    23    1
42    23    24    2
43    25    26    ar
44    25    42    1
45    26    43    1
46    27    28    ar
47    27    44    1
48    28    45    1
@<TRIPOS>SUBSTRUCTURE
1   ZINC000004249142 1     RESIDUE    1   A     ZIN   1
@<TRIPOS>MOLECULE
ZINC000012462426
54    56    1     0     0
SMALL
USER_CHARGES
@<TRIPOS>ATOM
1      C1      1.2407    1.0387   -0.9681 C.3      1 ZINC000012462426   -0.1800
2      C2      1.1032   -0.4612   -0.9180 C.2      1 ZINC000012462426    0.5100
3      O3      2.0767   -1.1653   -1.0842 O.2      1 ZINC000012462426   -0.5400
4      N4     -0.1015   -1.0202   -0.6884 N.am     1 ZINC000012462426   -0.7300
5      C5     -0.2351   -2.4783   -0.6397 C.3      1 ZINC000012462426    0.1800
6      H6      0.4503   -2.9301   -1.3567 H        1 ZINC000012462426    0.1000
7      C7      0.0999   -2.9743    0.7684 C.3      1 ZINC000012462426   -0.1600
8      C8     -1.6501   -2.8649   -0.9851 C.ar     1 ZINC000012462426   -0.0800
9      C9     -2.7074   -2.1107   -0.5107 C.ar     1 ZINC000012462426   -0.1200
10     C10    -4.0075   -2.4617   -0.8257 C.ar     1 ZINC000012462426   -0.0900
11     C11    -4.2539   -3.5675   -1.6151 C.ar     1 ZINC000012462426   -0.1400
12     C12    -3.1938   -4.3276   -2.0934 C.ar     1 ZINC000012462426    0.1500
13     N13    -3.4394   -5.4466   -2.8925 N.am     1 ZINC000012462426   -1.0600
14     S14    -4.5266   -5.3521   -4.1380 S.o2     1 ZINC000012462426    2.6900
15     O15    -4.4967   -6.6126   -4.7932 O.2      1 ZINC000012462426   -0.9400
16     O16    -5.7115   -4.7868   -3.5942 O.2      1 ZINC000012462426   -0.9400
17     C17    -3.8984   -4.1770   -5.2908 C.ar     1 ZINC000012462426   -0.6500
18     C18    -4.5978   -3.0125   -5.5392 C.ar     1 ZINC000012462426   -0.0500
19     C19    -4.1019   -2.0867   -6.4481 C.ar     1 ZINC000012462426    0.1400
20     N20    -4.8079   -0.9056   -6.7016 N.am     1 ZINC000012462426   -0.5600
21     C21    -4.3210    0.1828   -7.5573 C.3      1 ZINC000012462426    0.0900
22     C22    -5.5659    1.0355   -7.8881 C.3      1 ZINC000012462426   -0.1300
23     C23    -6.4859    0.7310   -6.6832 C.3      1 ZINC000012462426   -0.1500
24     C24    -6.0218   -0.6245   -6.1974 C.2      1 ZINC000012462426    0.5100
25     O25    -6.6504   -1.3490   -5.4551 O.2      1 ZINC000012462426   -0.5000
26     C26    -2.9037   -2.3355   -7.1042 C.ar     1 ZINC000012462426   -0.1000
27     C27    -2.2088   -3.5023   -6.8513 C.ar     1 ZINC000012462426   -0.1100
28     C28    -2.7024   -4.4192   -5.9417 C.ar     1 ZINC000012462426    0.0000
29     C29    -1.9417   -5.6911   -5.6683 C.3      1 ZINC000012462426   -0.1700
30     C30    -1.8891   -3.9690   -1.7799 C.ar     1 ZINC000012462426   -0.1200
31     H31     2.2804    1.3019   -1.1626 H        1 ZINC000012462426    0.0900
32     H32     0.6105    1.4348   -1.7644 H        1 ZINC000012462426    0.0900
33     H33     0.9305    1.4641   -0.0137 H        1 ZINC000012462426    0.0900
34     H34    -0.8800   -0.4571   -0.5555 H        1 ZINC000012462426    0.4000
35     H35    -0.5855   -2.5225    1.4854 H        1 ZINC000012462426    0.0600
36     H36     0.0005   -4.0592    0.8047 H        1 ZINC000012462426    0.0700
37     H37     1.1234   -2.6947    1.0182 H        1 ZINC000012462426    0.0700
38     H38    -2.5175   -1.2457    0.1075 H        1 ZINC000012462426    0.1200
39     H39    -4.8311   -1.8704   -0.4535 H        1 ZINC000012462426    0.1300
40     H40    -5.2694   -3.8415   -1.8600 H        1 ZINC000012462426    0.1600
41     H41    -2.9730   -6.2790   -2.7179 H        1 ZINC000012462426    0.4300
42     H42    -5.5296   -2.8220   -5.0275 H        1 ZINC000012462426    0.1800
43     H43    -3.5844    0.7824   -7.0225 H        1 ZINC000012462426    0.0800
44     H44    -3.8870   -0.2216   -8.4718 H        1 ZINC000012462426    0.0900
45     H45    -5.3136    2.0951   -7.9282 H        1 ZINC000012462426    0.1000
46     H46    -6.0250    0.7098   -8.8215 H        1 ZINC000012462426    0.0900
47     H47    -6.3575    1.4837   -5.9053 H        1 ZINC000012462426    0.1100
48     H48    -7.5274    0.6832   -7.0009 H        1 ZINC000012462426    0.1100
49     H49    -2.5156   -1.6178   -7.8117 H        1 ZINC000012462426    0.1400
50     H50    -1.2770   -3.6966   -7.3615 H        1 ZINC000012462426    0.1400
51     H51    -1.3143   -5.5569   -4.7871 H        1 ZINC000012462426    0.0800
52     H52    -2.6455   -6.5048   -5.4927 H        1 ZINC000012462426    0.1000
53     H53    -1.3152   -5.9316   -6.5272 H        1 ZINC000012462426    0.0900
54     H54    -1.0628   -4.5577   -2.1501 H        1 ZINC000012462426    0.1300
@<TRIPOS>BOND
1     1     2     1
2     1     31    1
3     1     32    1
4     1     33    1
5     2     3     2
6     2     4     am
7     4     5     1
8     4     34    1
9     5     6     1
10    5     7     1
11    5     8     1
12    7     35    1
13    7     36    1
14    7     37    1
15    8     30    ar
16    8     9     ar
17    9     10    ar
18    9     38    1
19    10    11    ar
20    10    39    1
21    11    12    ar
22    11    40    1
23    12    13    1
24    12    30    ar
25    13    14    am
26    13    41    1
27    14    15    2
28    14    16    2
29    14    17    1
30    17    28    ar
31    17    18    ar
32    18    19    ar
33    18    42    1
34    19    20    1
35    19    26    ar
36    20    24    am
37    20    21    1
38    21    22    1
39    21    43    1
40    21    44    1
41    22    23    1
42    22    45    1
43    22    46    1
44    23    24    1
45    23    47    1
46    23    48    1
47    24    25    2
48    26    27    ar
49    26    49    1
50    27    28    ar
51    27    50    1
52    28    29    1
53    29    51    1
54    29    52    1
55    29    53    1
56    30    54    1
@<TRIPOS>SUBSTRUCTURE
1   ZINC000012462426 1     RESIDUE    1   A     ZIN   1

@<TRIPOS>MOLECULE
ZINC000012462426
53    55    1     0     0
SMALL
USER_CHARGES
@<TRIPOS>ATOM
1      C1     -0.1066    1.5367    0.0169 C.3      1 ZINC000012462426   -0.1700
2      C2     -0.0817    0.0299    0.0150 C.2      1 ZINC000012462426    0.5100
3      O3      0.9785   -0.5591    0.0159 O.2      1 ZINC000012462426   -0.5500
4      N4     -1.2376   -0.6632    0.0122 N.am     1 ZINC000012462426   -0.7200
5      C5     -1.2134   -2.1280    0.0104 C.3      1 ZINC000012462426    0.1900
6      H6     -0.3647   -2.4766   -0.5781 H        1 ZINC000012462426    0.0900
7      C7     -1.0815   -2.6377    1.4470 C.3      1 ZINC000012462426   -0.1500
8      C8     -2.4916   -2.6508   -0.5928 C.ar     1 ZINC000012462426   -0.0600
9      C9     -3.6944   -2.0325   -0.3050 C.ar     1 ZINC000012462426   -0.2200
10     C10    -4.8698   -2.5087   -0.8568 C.ar     1 ZINC000012462426   -0.0600
11     C11    -4.8457   -3.6042   -1.6971 C.ar     1 ZINC000012462426   -0.2600
12     C12    -3.6388   -4.2279   -1.9883 C.ar     1 ZINC000012462426    0.2800
13     N13    -3.6108   -5.3360   -2.8382 N.pl3    1 ZINC000012462426   -1.0900
14     S14    -5.0170   -5.9078   -3.4999 S.o2     1 ZINC000012462426    2.6100
15     O15    -5.7916   -6.4133   -2.4211 O.2      1 ZINC000012462426   -1.0200
16     O16    -5.4831   -4.8989   -4.3855 O.2      1 ZINC000012462426   -1.0300
17     C17    -4.5957   -7.2941   -4.5025 C.ar     1 ZINC000012462426   -0.5900
18     C18    -5.0563   -8.5523   -4.1684 C.ar     1 ZINC000012462426   -0.0600
19     C19    -4.7238   -9.6446   -4.9592 C.ar     1 ZINC000012462426    0.1300
20     N20    -5.1892  -10.9208   -4.6236 N.am     1 ZINC000012462426   -0.5600
21     C21    -4.9919  -12.1179   -5.4495 C.3      1 ZINC000012462426    0.1000
22     C22    -5.2668  -13.3149   -4.5125 C.3      1 ZINC000012462426   -0.1300
23     C23    -6.2084  -12.6828   -3.4614 C.3      1 ZINC000012462426   -0.1500
24     C24    -5.8695  -11.2090   -3.5007 C.2      1 ZINC000012462426    0.5000
25     O25    -6.1737  -10.4033   -2.6467 O.2      1 ZINC000012462426   -0.5000
26     C26    -3.9289   -9.4674   -6.0838 C.ar     1 ZINC000012462426   -0.1200
27     C27    -3.4714   -8.2062   -6.4126 C.ar     1 ZINC000012462426   -0.1200
28     C28    -3.8089   -7.1201   -5.6265 C.ar     1 ZINC000012462426    0.0000
29     C29    -3.3080   -5.7455   -5.9881 C.3      1 ZINC000012462426   -0.1400
30     C30    -2.4596   -3.7435   -1.4370 C.ar     1 ZINC000012462426   -0.1700
31     H31     0.9149    1.9170    0.0190 H        1 ZINC000012462426    0.0900
32     H32    -0.6249    1.8926   -0.8735 H        1 ZINC000012462426    0.0900
33     H33    -0.6278    1.8903    0.9065 H        1 ZINC000012462426    0.0800
34     H34    -2.0855   -0.1921    0.0115 H        1 ZINC000012462426    0.4000
35     H35    -1.0635   -3.7275    1.4456 H        1 ZINC000012462426    0.0700
36     H36    -0.1570   -2.2596    1.8832 H        1 ZINC000012462426    0.0500
37     H37    -1.9302   -2.2891    2.0355 H        1 ZINC000012462426    0.0600
38     H38    -3.7161   -1.1759    0.3524 H        1 ZINC000012462426    0.1000
39     H39    -5.8076   -2.0235   -0.6300 H        1 ZINC000012462426    0.1000
40     H40    -5.7640   -3.9761   -2.1271 H        1 ZINC000012462426    0.1000
41     H41    -5.6741   -8.6870   -3.2928 H        1 ZINC000012462426    0.1700
42     H42    -5.6950  -12.1216   -6.2824 H        1 ZINC000012462426    0.0800
43     H43    -3.9674  -12.1561   -5.8197 H        1 ZINC000012462426    0.0900
44     H44    -5.7659  -14.1227   -5.0478 H        1 ZINC000012462426    0.0900
45     H45    -4.3453  -13.6671   -4.0490 H        1 ZINC000012462426    0.0900
46     H46    -7.2506  -12.8459   -3.7358 H        1 ZINC000012462426    0.1100
47     H47    -6.0049  -13.0920   -2.4718 H        1 ZINC000012462426    0.1100
48     H48    -3.6683  -10.3148   -6.7006 H        1 ZINC000012462426    0.1300
49     H49    -2.8528   -8.0678   -7.2870 H        1 ZINC000012462426    0.1300
50     H50    -4.0258   -5.2595   -6.6489 H        1 ZINC000012462426    0.0800
51     H51    -3.1889   -5.1521   -5.0817 H        1 ZINC000012462426    0.1000
52     H52    -2.3470   -5.8308   -6.4954 H        1 ZINC000012462426    0.0700
53     H53    -1.5198   -4.2260   -1.6614 H        1 ZINC000012462426    0.1100
@<TRIPOS>BOND
1     1     2     1
2     1     31    1
3     1     32    1
4     1     33    1
5     2     3     2
6     2     4     am
7     4     5     1
8     4     34    1
9     5     6     1
10    5     7     1
11    5     8     1
12    7     35    1
13    7     36    1
14    7     37    1
15    8     30    ar
16    8     9     ar
17    9     10    ar
18    9     38    1
19    10    11    ar
20    10    39    1
21    11    12    ar
22    11    40    1
23    12    13    1
24    12    30    ar
25    13    14    1
26    14    15    2
27    14    16    2
28    14    17    1
29    17    28    ar
30    17    18    ar
31    18    19    ar
32    18    41    1
33    19    20    1
34    19    26    ar
35    20    24    am
36    20    21    1
37    21    22    1
38    21    42    1
39    21    43    1
40    22    23    1
41    22    44    1
42    22    45    1
43    23    24    1
44    23    46    1
45    23    47    1
46    24    25    2
47    26    27    ar
48    26    48    1
49    27    28    ar
50    27    49    1
51    28    29    1
52    29    50    1
53    29    51    1
54    29    52    1
55    30    53    1
@<TRIPOS>SUBSTRUCTURE
1   ZINC000012462426 1     RESIDUE    1   A     ZIN   1
@<TRIPOS>MOLECULE
ZINC000002153866
57    60    1     0     0
SMALL
USER_CHARGES
@<TRIPOS>ATOM
1      C1      0.1487    1.4984    0.0068 C.3      1 ZINC000002153866   -0.1100
2      C2      0.0181   -0.0029    0.0026 C.ar     1 ZINC000002153866   -0.0900
3      C3     -0.1127   -0.6806   -1.1995 C.ar     1 ZINC000002153866    0.1000
4      O4     -0.1548   -0.2721   -2.4856 O.3      1 ZINC000002153866   -0.1800
5      C5     -0.2962   -1.3160   -3.3197 C.2      1 ZINC000002153866    0.0300
6      C6     -0.3526   -2.4571   -2.6148 C.2      1 ZINC000002153866   -0.1700
7      C7     -0.5092   -3.8319   -3.2081 C.3      1 ZINC000002153866   -0.0500
8      C8     -0.9945   -3.6832   -4.6557 C.3      1 ZINC000002153866   -0.1200
9      C9     -0.1106   -2.6654   -5.3824 C.3      1 ZINC000002153866   -0.1200
10     C10    -0.3821   -1.2625   -4.8284 C.3      1 ZINC000002153866   -0.0400
11     C11    -0.2347   -2.0869   -1.2044 C.ar     1 ZINC000002153866   -0.1400
12     C12    -0.2230   -2.7946   -0.0105 C.ar     1 ZINC000002153866   -0.0100
13     C13    -0.0901   -2.1041    1.1941 C.ar     1 ZINC000002153866   -0.1400
14     C14     0.0350   -0.7001    1.2002 C.ar     1 ZINC000002153866    0.1600
15     O15     0.1638   -0.0316    2.3657 O.3      1 ZINC000002153866   -0.2600
16     C16     0.1746   -0.6944    3.5260 C.2      1 ZINC000002153866    0.5100
17     O17     0.2923   -0.0589    4.5581 O.2      1 ZINC000002153866   -0.4400
18     C18     0.0551   -2.0964    3.6080 C.2      1 ZINC000002153866   -0.1800
19     C19     0.0740   -2.7812    4.9503 C.3      1 ZINC000002153866   -0.0900
20     C20    -1.3210   -2.8091    5.5196 C.2      1 ZINC000002153866    0.5100
21     O21    -2.2400   -2.3209    4.8968 O.2      1 ZINC000002153866   -0.5400
22     N22    -1.5473   -3.3766    6.7210 N.am     1 ZINC000002153866   -0.6900
23     C23    -2.9034   -3.4037    7.2745 C.3      1 ZINC000002153866    0.0800
24     H24    -3.6235   -3.5286    6.4658 H        1 ZINC000002153866    0.0800
25     C25    -3.1776   -2.1092    7.9958 C.2      1 ZINC000002153866    0.4900
26     O26    -4.3142   -1.6716    8.0521 O.co2    1 ZINC000002153866   -0.6900
27     O27    -2.2628   -1.4996    8.5230 O.co2    1 ZINC000002153866   -0.6900
28     C28    -3.0307   -4.5710    8.2554 C.3      1 ZINC000002153866   -0.0900
29     C29    -4.4470   -4.5993    8.8335 C.3      1 ZINC000002153866   -0.1400
30     C30    -2.7523   -5.8852    7.5231 C.3      1 ZINC000002153866   -0.1400
31     C31    -0.0737   -2.8267    2.4705 C.2      1 ZINC000002153866    0.0200
32     C32    -0.2037   -4.3274    2.5183 C.3      1 ZINC000002153866   -0.1300
33     H33     1.2019    1.7717   -0.0582 H        1 ZINC000002153866    0.0800
34     H34    -0.3874    1.9122   -0.8473 H        1 ZINC000002153866    0.0700
35     H35    -0.2738    1.8973    0.9290 H        1 ZINC000002153866    0.0800
36     H36     0.4507   -4.3482   -3.1946 H        1 ZINC000002153866    0.0800
37     H37    -1.2414   -4.3982   -2.6325 H        1 ZINC000002153866    0.0800
38     H38    -0.9315   -4.6466   -5.1615 H        1 ZINC000002153866    0.0700
39     H39    -2.0278   -3.3362   -4.6594 H        1 ZINC000002153866    0.0700
40     H40     0.9380   -2.9198   -5.2285 H        1 ZINC000002153866    0.0700
41     H41    -0.3360   -2.6846   -6.4487 H        1 ZINC000002153866    0.0800
42     H42    -1.3788   -0.9376   -5.1269 H        1 ZINC000002153866    0.0900
43     H43     0.3633   -0.5665   -5.2131 H        1 ZINC000002153866    0.0900
44     H44    -0.3162   -3.8705   -0.0141 H        1 ZINC000002153866    0.1400
45     H45     0.4388   -3.8016    4.8324 H        1 ZINC000002153866    0.1100
46     H46     0.7319   -2.2361    5.6271 H        1 ZINC000002153866    0.1100
47     H47    -0.8122   -3.7671    7.2191 H        1 ZINC000002153866    0.3900
48     H48    -2.3106   -4.4461    9.0641 H        1 ZINC000002153866    0.0700
49     H49    -5.1671   -4.7241    8.0248 H        1 ZINC000002153866    0.0500
50     H50    -4.5376   -5.4308    9.5323 H        1 ZINC000002153866    0.0400
51     H51    -4.6453   -3.6630    9.3552 H        1 ZINC000002153866    0.0700
52     H52    -3.4724   -6.0100    6.7144 H        1 ZINC000002153866    0.0500
53     H53    -1.7433   -5.8650    7.1113 H        1 ZINC000002153866    0.0500
54     H54    -2.8430   -6.7168    8.2220 H        1 ZINC000002153866    0.0500
55     H55    -0.2691   -4.6535    3.5563 H        1 ZINC000002153866    0.0800
56     H56    -1.1043   -4.6312    1.9846 H        1 ZINC000002153866    0.0900
57     H57     0.6681   -4.7827    2.0486 H        1 ZINC000002153866    0.0900
@<TRIPOS>BOND
1     1     2     1
2     1     33    1
3     1     34    1
4     1     35    1
5     2     14    ar
6     2     3     ar
7     3     11    ar
8     3     4     1
9     4     5     1
10    5     10    1
11    5     6     2
12    6     7     1
13    6     11    1
14    7     8     1
15    7     36    1
16    7     37    1
17    8     9     1
18    8     38    1
19    8     39    1
20    9     10    1
21    9     40    1
22    9     41    1
23    10    42    1
24    10    43    1
25    11    12    ar
26    12    13    ar
27    12    44    1
28    13    31    1
29    13    14    ar
30    14    15    1
31    15    16    1
32    16    17    2
33    16    18    1
34    18    19    1
35    18    31    2
36    19    20    1
37    19    45    1
38    19    46    1
39    20    21    2
40    20    22    am
41    22    23    1
42    22    47    1
43    23    24    1
44    23    25    1
45    23    28    1
46    25    26    ar
47    25    27    ar
48    28    29    1
49    28    30    1
50    28    48    1
51    29    49    1
52    29    50    1
53    29    51    1
54    30    52    1
55    30    53    1
56    30    54    1
57    31    32    1
58    32    55    1
59    32    56    1
60    32    57    1
@<TRIPOS>SUBSTRUCTURE
1   ZINC000002153866 1     RESIDUE    1   A     ZIN   1
@<TRIPOS>MOLECULE
ZINC000002103404
57    60    1     0     0
SMALL
USER_CHARGES
@<TRIPOS>ATOM
1      C1     -0.0184    1.5028    0.0103 C.3      1 ZINC000002103404   -0.0800
2      C2      0.0021   -0.0041    0.0020 C.2      1 ZINC000002103404   -0.1700
3      C3      0.0086   -0.8022   -1.0727 C.2      1 ZINC000002103404    0.0000
4      O4      0.0282   -2.0929   -0.6951 O.3      1 ZINC000002103404   -0.1900
5      C5      0.0353   -2.2023    0.6493 C.ar     1 ZINC000002103404    0.1000
6      C6      0.0548   -3.2899    1.5097 C.ar     1 ZINC000002103404   -0.0900
7      C7      0.0719   -4.6898    0.9522 C.3      1 ZINC000002103404   -0.1100
8      C8      0.0589   -3.0918    2.8796 C.ar     1 ZINC000002103404    0.1600
9      C9      0.0429   -1.7822    3.4029 C.ar     1 ZINC000002103404   -0.1400
10     C10     0.0229   -0.6832    2.5440 C.ar     1 ZINC000002103404   -0.0100
11     C11     0.0253   -0.8930    1.1722 C.ar     1 ZINC000002103404   -0.1400
12     C12     0.0471   -1.5974    4.8574 C.2      1 ZINC000002103404    0.0200
13     C13     0.0300   -0.2171    5.4621 C.3      1 ZINC000002103404   -0.1300
14     C14     0.0665   -2.7029    5.6445 C.2      1 ZINC000002103404   -0.2000
15     C15     0.0710   -2.5621    7.1449 C.3      1 ZINC000002103404   -0.0500
16     C16    -1.3624   -2.6602    7.6707 C.3      1 ZINC000002103404   -0.1300
17     C17    -1.3579   -2.5194    9.1711 C.2      1 ZINC000002103404    0.5200
18     O18    -0.3111   -2.3566    9.7617 O.2      1 ZINC000002103404   -0.5500
19     N19    -2.5169   -2.5744    9.8566 N.am     1 ZINC000002103404   -0.6900
20     C20    -2.5125   -2.4376   11.3152 C.3      1 ZINC000002103404    0.0900
21     H21    -1.7340   -1.7347   11.6118 H        1 ZINC000002103404    0.0800
22     C22    -3.8736   -1.9182   11.7829 C.3      1 ZINC000002103404   -0.0800
23     C23    -4.0886   -0.5242   11.2523 C.ar     1 ZINC000002103404   -0.0600
24     C24    -3.6714    0.5680   11.9897 C.ar     1 ZINC000002103404   -0.1200
25     C25    -3.8687    1.8467   11.5030 C.ar     1 ZINC000002103404   -0.1200
26     C26    -4.4828    2.0332   10.2787 C.ar     1 ZINC000002103404   -0.1400
27     C27    -4.8992    0.9409    9.5408 C.ar     1 ZINC000002103404   -0.1200
28     C28    -4.6980   -0.3379   10.0256 C.ar     1 ZINC000002103404   -0.1200
29     C29    -2.2437   -3.7800   11.9449 C.2      1 ZINC000002103404    0.4900
30     O30    -2.0718   -4.7603   11.2406 O.co2    1 ZINC000002103404   -0.6800
31     O31    -2.1981   -3.8859   13.1587 O.co2    1 ZINC000002103404   -0.7000
32     C32     0.0818   -3.9845    5.0542 C.2      1 ZINC000002103404    0.5100
33     O33     0.0991   -4.9676    5.7726 O.2      1 ZINC000002103404   -0.4400
34     O34     0.0778   -4.1489    3.7226 O.3      1 ZINC000002103404   -0.2700
35     H35     1.0042    1.8801    0.0026 H        1 ZINC000002103404    0.0700
36     H36    -0.5455    1.8639   -0.8728 H        1 ZINC000002103404    0.0700
37     H37    -0.5286    1.8543    0.9071 H        1 ZINC000002103404    0.0700
38     H38    -0.0010   -0.4587   -2.0966 H        1 ZINC000002103404    0.2100
39     H39     1.1036   -5.0128    0.8129 H        1 ZINC000002103404    0.0800
40     H40    -0.4291   -5.3638    1.6470 H        1 ZINC000002103404    0.0800
41     H41    -0.4463   -4.7054   -0.0066 H        1 ZINC000002103404    0.0700
42     H42     0.0102    0.3205    2.9425 H        1 ZINC000002103404    0.1500
43     H43    -1.0017    0.1007    5.6128 H        1 ZINC000002103404    0.0900
44     H44     0.5486   -0.2339    6.4206 H        1 ZINC000002103404    0.0900
45     H45     0.5305    0.4801    4.7902 H        1 ZINC000002103404    0.0800
46     H46     0.6739   -3.3577    7.5826 H        1 ZINC000002103404    0.0900
47     H47     0.4927   -1.5947    7.4177 H        1 ZINC000002103404    0.0900
48     H48    -1.9653   -1.8646    7.2329 H        1 ZINC000002103404    0.0800
49     H49    -1.7841   -3.6276    7.3978 H        1 ZINC000002103404    0.0900
50     H50    -3.3541   -2.7047    9.3843 H        1 ZINC000002103404    0.3900
51     H51    -4.6603   -2.5742   11.4103 H        1 ZINC000002103404    0.0700
52     H52    -3.9009   -1.9005   12.8724 H        1 ZINC000002103404    0.0900
53     H53    -3.1916    0.4224   12.9463 H        1 ZINC000002103404    0.1200
54     H54    -3.5434    2.7001   12.0795 H        1 ZINC000002103404    0.1200
55     H55    -4.6376    3.0322    9.8988 H        1 ZINC000002103404    0.1100
56     H56    -5.3793    1.0866    8.5844 H        1 ZINC000002103404    0.1200
57     H57    -5.0234   -1.1913    9.4491 H        1 ZINC000002103404    0.1200
@<TRIPOS>BOND
1     1     2     1
2     1     35    1
3     1     36    1
4     1     37    1
5     2     11    1
6     2     3     2
7     3     4     1
8     3     38    1
9     4     5     1
10    5     11    ar
11    5     6     ar
12    6     7     1
13    6     8     ar
14    7     39    1
15    7     40    1
16    7     41    1
17    8     34    1
18    8     9     ar
19    9     10    ar
20    9     12    1
21    10    11    ar
22    10    42    1
23    12    13    1
24    12    14    2
25    13    43    1
26    13    44    1
27    13    45    1
28    14    15    1
29    14    32    1
30    15    16    1
31    15    46    1
32    15    47    1
33    16    17    1
34    16    48    1
35    16    49    1
36    17    18    2
37    17    19    am
38    19    20    1
39    19    50    1
40    20    21    1
41    20    22    1
42    20    29    1
43    22    23    1
44    22    51    1
45    22    52    1
46    23    28    ar
47    23    24    ar
48    24    25    ar
49    24    53    1
50    25    26    ar
51    25    54    1
52    26    27    ar
53    26    55    1
54    27    28    ar
55    27    56    1
56    28    57    1
57    29    30    ar
58    29    31    ar
59    32    33    2
60    32    34    1
@<TRIPOS>SUBSTRUCTURE
1   ZINC000002103404 1     RESIDUE    1   A     ZIN   1
@<TRIPOS>MOLECULE
ZINC000019237672
45    48    1     0     0
SMALL
USER_CHARGES
@<TRIPOS>ATOM
1      C1     -0.0184    1.5028    0.0103 C.3      1 ZINC000019237672   -0.1200
2      C2      0.0021   -0.0041    0.0020 C.ar     1 ZINC000019237672   -0.1200
3      C3      0.0060   -0.6994   -1.1973 C.ar     1 ZINC000019237672   -0.0800
4      C4      0.0255   -2.0854   -1.1565 C.ar     1 ZINC000019237672   -0.1600
5      C5      0.0403   -2.7229    0.0694 C.ar     1 ZINC000019237672    0.0900
6      N6      0.0360   -2.0288    1.1908 N.ar     1 ZINC000019237672   -0.4600
7      C7      0.0229   -0.7103    1.1901 C.ar     1 ZINC000019237672    0.1100
8      C8      0.0186    0.0352    2.4998 C.3      1 ZINC000019237672    0.2200
9      H9      0.2738    1.0802    2.3239 H        1 ZINC000019237672    0.1000
10     C10    -1.3725   -0.0508    3.1309 C.3      1 ZINC000019237672   -0.0600
11     C11    -1.4118    0.7954    4.3773 C.2      1 ZINC000019237672   -0.1000
12     C12    -1.0934    0.3156    5.5805 C.2      1 ZINC000019237672   -0.2000
13     S13    -1.2563    1.5873    6.7846 S.3      1 ZINC000019237672    0.1000
14     C14    -1.7625    2.7329    5.5497 C.2      1 ZINC000019237672   -0.2100
15     C15    -1.7754    2.1309    4.3594 C.2      1 ZINC000019237672   -0.1300
16     N16     1.0033   -0.5623    3.4050 N.am     1 ZINC000019237672   -1.0900
17     S17     2.5301    0.0715    3.5025 S.o2     1 ZINC000019237672    2.6900
18     O18     3.2219   -0.6966    4.4776 O.2      1 ZINC000019237672   -0.9500
19     O19     2.9873    0.2242    2.1658 O.2      1 ZINC000019237672   -0.9400
20     C20     2.3787    1.6971    4.1653 C.ar     1 ZINC000019237672   -0.6700
21     C21     2.2011    2.7738    3.3146 C.ar     1 ZINC000019237672    0.0000
22     C22     2.0816    4.0515    3.8267 C.ar     1 ZINC000019237672   -0.1200
23     C23     2.1395    4.2532    5.1964 C.ar     1 ZINC000019237672    0.1300
24     N24     2.0541    5.3886    6.0017 N.am     1 ZINC000019237672   -0.6500
25     C25     2.1775    4.9872    7.2824 C.2      1 ZINC000019237672    0.6400
26     O26     2.1490    5.7187    8.2534 O.2      1 ZINC000019237672   -0.4700
27     O27     2.3362    3.6549    7.3201 O.3      1 ZINC000019237672   -0.2300
28     C28     2.3180    3.1682    6.0550 C.ar     1 ZINC000019237672    0.0200
29     C29     2.4321    1.8899    5.5324 C.ar     1 ZINC000019237672    0.0300
30     H30     1.0042    1.8801    0.0026 H        1 ZINC000019237672    0.0800
31     H31    -0.5455    1.8639   -0.8728 H        1 ZINC000019237672    0.0700
32     H32    -0.5286    1.8543    0.9071 H        1 ZINC000019237672    0.0700
33     H33    -0.0062   -0.1742   -2.1409 H        1 ZINC000019237672    0.1400
34     H34     0.0287   -2.6593   -2.0714 H        1 ZINC000019237672    0.1400
35     H35     0.0552   -3.8020    0.1096 H        1 ZINC000019237672    0.1600
36     H36    -2.1163    0.3123    2.4217 H        1 ZINC000019237672    0.0900
37     H37    -1.5913   -1.0871    3.3883 H        1 ZINC000019237672    0.0900
38     H38    -0.7835   -0.6987    5.7843 H        1 ZINC000019237672    0.1700
39     H39    -2.0191    3.7668    5.7273 H        1 ZINC000019237672    0.1600
40     H40    -2.0560    2.6445    3.4517 H        1 ZINC000019237672    0.1400
41     H41     0.7610   -1.3292    3.9473 H        1 ZINC000019237672    0.4300
42     H42     2.1562    2.6150    2.2473 H        1 ZINC000019237672    0.1600
43     H43     1.9438    4.8908    3.1612 H        1 ZINC000019237672    0.1500
44     H44     1.9293    6.3007    5.6960 H        1 ZINC000019237672    0.4500
45     H45     2.5646    1.0457    6.1928 H        1 ZINC000019237672    0.1600
@<TRIPOS>BOND
1     1     2     1
2     1     30    1
3     1     31    1
4     1     32    1
5     2     7     ar
6     2     3     ar
7     3     4     ar
8     3     33    1
9     4     5     ar
10    4     34    1
11    5     6     ar
12    5     35    1
13    6     7     ar
14    7     8     1
15    8     9     1
16    8     10    1
17    8     16    1
18    10    11    1
19    10    36    1
20    10    37    1
21    11    15    1
22    11    12    2
23    12    13    1
24    12    38    1
25    13    14    1
26    14    15    2
27    14    39    1
28    15    40    1
29    16    17    am
30    16    41    1
31    17    18    2
32    17    19    2
33    17    20    1
34    20    29    ar
35    20    21    ar
36    21    22    ar
37    21    42    1
38    22    23    ar
39    22    43    1
40    23    28    ar
41    23    24    1
42    24    25    am
43    24    44    1
44    25    26    2
45    25    27    1
46    27    28    1
47    28    29    ar
48    29    45    1
@<TRIPOS>SUBSTRUCTURE
1   ZINC000019237672 1     RESIDUE    1   A     ZIN   1
@<TRIPOS>MOLECULE
ZINC000023534729
52    53    1     0     0
SMALL
USER_CHARGES
@<TRIPOS>ATOM
1      C1      0.2480    1.5325    0.2913 C.3      1 ZINC000023534729   -0.1200
2      C2      0.1314    0.0322    0.2091 C.ar     1 ZINC000023534729   -0.0800
3      C3      0.8484   -0.6642   -0.7465 C.ar     1 ZINC000023534729   -0.1200
4      C4      0.7436   -2.0391   -0.8245 C.ar     1 ZINC000023534729   -0.0800
5      C5      1.5254   -2.7973   -1.8661 C.3      1 ZINC000023534729   -0.1100
6      C6     -0.0825   -2.7222    0.0584 C.ar     1 ZINC000023534729    0.1200
7      N7     -0.1904   -4.1153   -0.0176 N.am     1 ZINC000023534729   -0.6700
8      C8      0.0872   -4.8726    1.0621 C.2      1 ZINC000023534729    0.5200
9      O9      0.3445   -4.3446    2.1232 O.2      1 ZINC000023534729   -0.4900
10     C10     0.0779   -6.3755    0.9508 C.3      1 ZINC000023534729    0.0700
11     H11    -0.8835   -6.7047    0.5567 H        1 ZINC000023534729    0.1100
12     C12     1.1963   -6.8240    0.0079 C.3      1 ZINC000023534729   -0.1700
13     O13     0.2884   -6.9593    2.2635 O.3      1 ZINC000023534729   -0.3200
14     C14    -0.2758   -8.1602    2.4964 C.2      1 ZINC000023534729    0.5100
15     O15    -0.9258   -8.7047    1.6267 O.2      1 ZINC000023534729   -0.5000
16     C16    -0.1040   -8.8149    3.8097 C.ar     1 ZINC000023534729   -0.1100
17     C17     0.6379   -8.1885    4.8130 C.ar     1 ZINC000023534729   -0.0600
18     C18     0.7970   -8.8022    6.0389 C.ar     1 ZINC000023534729   -0.1100
19     C19     0.2239  -10.0369    6.2785 C.ar     1 ZINC000023534729   -0.1100
20     C20    -0.5163  -10.6695    5.2862 C.ar     1 ZINC000023534729    0.1300
21     N21    -1.0935  -11.9176    5.5336 N.am     1 ZINC000023534729   -1.0600
22     S22    -1.8948  -12.1918    6.9566 S.o2     1 ZINC000023534729    2.6100
23     C23    -3.3244  -11.0770    6.8932 C.3      1 ZINC000023534729   -0.6700
24     O24    -2.3145  -13.5465    6.8671 O.2      1 ZINC000023534729   -0.9500
25     O25    -0.9801  -11.7731    7.9603 O.2      1 ZINC000023534729   -0.9500
26     C26    -0.6874  -10.0589    4.0535 C.ar     1 ZINC000023534729   -0.0700
27     C27    -0.8008   -2.0200    1.0172 C.ar     1 ZINC000023534729   -0.0600
28     C28    -1.6985   -2.7573    1.9772 C.3      1 ZINC000023534729   -0.1100
29     C29    -0.6880   -0.6455    1.0930 C.ar     1 ZINC000023534729   -0.1200
30     H30     1.0625    1.7971    0.9656 H        1 ZINC000023534729    0.0700
31     H31     0.4519    1.9359   -0.7006 H        1 ZINC000023534729    0.0700
32     H32    -0.6858    1.9494    0.6683 H        1 ZINC000023534729    0.0700
33     H33     1.4907   -0.1323   -1.4328 H        1 ZINC000023534729    0.1300
34     H34     2.4970   -3.0771   -1.4590 H        1 ZINC000023534729    0.0700
35     H35     0.9774   -3.6962   -2.1488 H        1 ZINC000023534729    0.0600
36     H36     1.6672   -2.1671   -2.7441 H        1 ZINC000023534729    0.0700
37     H37    -0.4651   -4.5358   -0.8474 H        1 ZINC000023534729    0.4100
38     H38     1.1895   -7.9110   -0.0725 H        1 ZINC000023534729    0.0800
39     H39     1.0382   -6.3858   -0.9775 H        1 ZINC000023534729    0.0800
40     H40     2.1577   -6.4948    0.4021 H        1 ZINC000023534729    0.0800
41     H41     1.0876   -7.2238    4.6297 H        1 ZINC000023534729    0.1500
42     H42     1.3715   -8.3162    6.8135 H        1 ZINC000023534729    0.1400
43     H43     0.3520  -10.5121    7.2399 H        1 ZINC000023534729    0.1700
44     H44    -1.0247  -12.6235    4.8719 H        1 ZINC000023534729    0.4300
45     H45    -3.9384  -11.3224    6.0266 H        1 ZINC000023534729    0.1300
46     H46    -3.9156  -11.1922    7.8016 H        1 ZINC000023534729    0.1400
47     H47    -2.9783  -10.0465    6.8131 H        1 ZINC000023534729    0.1300
48     H48    -1.2621  -10.5485    3.2812 H        1 ZINC000023534729    0.1500
49     H49    -1.1686   -2.9239    2.9151 H        1 ZINC000023534729    0.0900
50     H50    -2.5935   -2.1644    2.1660 H        1 ZINC000023534729    0.0600
51     H51    -1.9827   -3.7167    1.5450 H        1 ZINC000023534729    0.0500
52     H52    -1.2464   -0.0988    1.8384 H        1 ZINC000023534729    0.1300
@<TRIPOS>BOND
1     1     2     1
2     1     30    1
3     1     31    1
4     1     32    1
5     2     29    ar
6     2     3     ar
7     3     4     ar
8     3     33    1
9     4     5     1
10    4     6     ar
11    5     34    1
12    5     35    1
13    5     36    1
14    6     7     1
15    6     27    ar
16    7     8     am
17    7     37    1
18    8     9     2
19    8     10    1
20    10    11    1
21    10    12    1
22    10    13    1
23    12    38    1
24    12    39    1
25    12    40    1
26    13    14    1
27    14    15    2
28    14    16    1
29    16    26    ar
30    16    17    ar
31    17    18    ar
32    17    41    1
33    18    19    ar
34    18    42    1
35    19    20    ar
36    19    43    1
37    20    21    1
38    20    26    ar
39    21    22    am
40    21    44    1
41    22    23    1
42    22    24    2
43    22    25    2
44    23    45    1
45    23    46    1
46    23    47    1
47    26    48    1
48    27    28    1
49    27    29    ar
50    28    49    1
51    28    50    1
52    28    51    1
53    29    52    1
@<TRIPOS>SUBSTRUCTURE
1   ZINC000023534729 1     RESIDUE    1   A     ZIN   1

@<TRIPOS>MOLECULE
ZINC000023534729
51    52    1     0     0
SMALL
USER_CHARGES
@<TRIPOS>ATOM
1      C1      0.2480    1.5325    0.2913 C.3      1 ZINC000023534729   -0.1100
2      C2      0.1314    0.0322    0.2091 C.ar     1 ZINC000023534729   -0.0800
3      C3      0.8484   -0.6642   -0.7465 C.ar     1 ZINC000023534729   -0.1200
4      C4      0.7436   -2.0391   -0.8245 C.ar     1 ZINC000023534729   -0.0900
5      C5      1.5254   -2.7973   -1.8661 C.3      1 ZINC000023534729   -0.1100
6      C6     -0.0825   -2.7222    0.0584 C.ar     1 ZINC000023534729    0.1300
7      N7     -0.1904   -4.1153   -0.0176 N.am     1 ZINC000023534729   -0.6800
8      C8      0.0872   -4.8726    1.0621 C.2      1 ZINC000023534729    0.5200
9      O9      0.3445   -4.3446    2.1232 O.2      1 ZINC000023534729   -0.4900
10     C10     0.0779   -6.3755    0.9508 C.3      1 ZINC000023534729    0.0700
11     H11    -0.8835   -6.7047    0.5567 H        1 ZINC000023534729    0.1100
12     C12     1.1963   -6.8240    0.0079 C.3      1 ZINC000023534729   -0.1600
13     O13     0.2884   -6.9593    2.2635 O.3      1 ZINC000023534729   -0.3200
14     C14    -0.2758   -8.1602    2.4964 C.2      1 ZINC000023534729    0.5200
15     O15    -0.9258   -8.7047    1.6267 O.2      1 ZINC000023534729   -0.5100
16     C16    -0.1040   -8.8149    3.8097 C.ar     1 ZINC000023534729   -0.1000
17     C17     0.6379   -8.1885    4.8130 C.ar     1 ZINC000023534729   -0.1700
18     C18     0.7970   -8.8022    6.0389 C.ar     1 ZINC000023534729   -0.0800
19     C19     0.2239  -10.0369    6.2785 C.ar     1 ZINC000023534729   -0.2200
20     C20    -0.5163  -10.6695    5.2862 C.ar     1 ZINC000023534729    0.2700
21     N21    -1.0935  -11.9176    5.5336 N.pl3    1 ZINC000023534729   -1.1000
22     S22    -0.8958  -12.6434    7.0089 S.o2     1 ZINC000023534729    2.5300
23     C23    -1.8007  -14.2093    6.8679 C.3      1 ZINC000023534729   -0.6300
24     O24     0.5023  -12.8817    7.0977 O.2      1 ZINC000023534729   -1.0300
25     O25    -1.5494  -11.7701    7.9196 O.2      1 ZINC000023534729   -1.0300
26     C26    -0.6874  -10.0589    4.0535 C.ar     1 ZINC000023534729   -0.1100
27     C27    -0.8008   -2.0200    1.0172 C.ar     1 ZINC000023534729   -0.0600
28     C28    -1.6985   -2.7573    1.9772 C.3      1 ZINC000023534729   -0.1100
29     C29    -0.6880   -0.6455    1.0930 C.ar     1 ZINC000023534729   -0.1200
30     H30     1.0625    1.7971    0.9656 H        1 ZINC000023534729    0.0700
31     H31     0.4519    1.9359   -0.7006 H        1 ZINC000023534729    0.0700
32     H32    -0.6858    1.9494    0.6683 H        1 ZINC000023534729    0.0700
33     H33     1.4907   -0.1323   -1.4328 H        1 ZINC000023534729    0.1200
34     H34     2.4970   -3.0771   -1.4590 H        1 ZINC000023534729    0.0700
35     H35     0.9774   -3.6962   -2.1488 H        1 ZINC000023534729    0.0600
36     H36     1.6672   -2.1671   -2.7441 H        1 ZINC000023534729    0.0700
37     H37    -0.4651   -4.5358   -0.8474 H        1 ZINC000023534729    0.4100
38     H38     1.0382   -6.3858   -0.9775 H        1 ZINC000023534729    0.0800
39     H39     2.1577   -6.4948    0.4021 H        1 ZINC000023534729    0.0700
40     H40     1.1895   -7.9110   -0.0725 H        1 ZINC000023534729    0.0800
41     H41     1.0876   -7.2238    4.6297 H        1 ZINC000023534729    0.1200
42     H42     1.3715   -8.3162    6.8135 H        1 ZINC000023534729    0.1100
43     H43     0.3520  -10.5121    7.2399 H        1 ZINC000023534729    0.1100
44     H44    -1.3733  -14.8045    6.0610 H        1 ZINC000023534729    0.1200
45     H45    -1.7232  -14.7595    7.8056 H        1 ZINC000023534729    0.1000
46     H46    -2.8494  -14.0047    6.6523 H        1 ZINC000023534729    0.1200
47     H47    -1.2621  -10.5485    3.2812 H        1 ZINC000023534729    0.1300
48     H48    -1.1686   -2.9239    2.9151 H        1 ZINC000023534729    0.0900
49     H49    -2.5935   -2.1644    2.1660 H        1 ZINC000023534729    0.0600
50     H50    -1.9827   -3.7167    1.5450 H        1 ZINC000023534729    0.0600
51     H51    -1.2464   -0.0988    1.8384 H        1 ZINC000023534729    0.1200
@<TRIPOS>BOND
1     1     2     1
2     1     30    1
3     1     31    1
4     1     32    1
5     2     29    ar
6     2     3     ar
7     3     4     ar
8     3     33    1
9     4     5     1
10    4     6     ar
11    5     34    1
12    5     35    1
13    5     36    1
14    6     7     1
15    6     27    ar
16    7     8     am
17    7     37    1
18    8     9     2
19    8     10    1
20    10    11    1
21    10    12    1
22    10    13    1
23    12    38    1
24    12    39    1
25    12    40    1
26    13    14    1
27    14    15    2
28    14    16    1
29    16    26    ar
30    16    17    ar
31    17    18    ar
32    17    41    1
33    18    19    ar
34    18    42    1
35    19    20    ar
36    19    43    1
37    20    21    1
38    20    26    ar
39    21    22    1
40    22    23    1
41    22    24    2
42    22    25    2
43    23    44    1
44    23    45    1
45    23    46    1
46    26    47    1
47    27    28    1
48    27    29    ar
49    28    48    1
50    28    49    1
51    28    50    1
52    29    51    1
@<TRIPOS>SUBSTRUCTURE
1   ZINC000023534729 1     RESIDUE    1   A     ZIN   1
@<TRIPOS>MOLECULE
ZINC000024877296
47    49    1     0     0
SMALL
USER_CHARGES
@<TRIPOS>ATOM
1      C1     -0.3509   -2.5965    0.5584 C.3      1 ZINC000024877296   -0.1400
2      C2     -0.1919   -1.1341    0.1379 C.3      1 ZINC000024877296   -0.0800
3      C3      0.6953   -1.0545   -1.0777 C.2      1 ZINC000024877296    0.1800
4      C4      0.2785   -1.0296   -2.3940 C.2      1 ZINC000024877296   -0.3000
5      C5     -1.1151   -1.0752   -2.8715 C.2      1 ZINC000024877296    0.6000
6      O6     -2.0297   -1.1415   -2.0726 O.2      1 ZINC000024877296   -0.5200
7      N7     -1.3760   -1.0433   -4.1934 N.am     1 ZINC000024877296   -0.6700
8      C8     -2.6983   -0.9734   -4.6437 C.ar     1 ZINC000024877296    0.1700
9      C9     -3.0646   -1.6050   -5.8256 C.ar     1 ZINC000024877296   -0.1500
10     C10    -4.3707   -1.5365   -6.2714 C.ar     1 ZINC000024877296   -0.0800
11     C11    -5.3164   -0.8403   -5.5441 C.ar     1 ZINC000024877296   -0.1700
12     C12    -4.9565   -0.2062   -4.3608 C.ar     1 ZINC000024877296    0.1600
13     N13    -5.9133    0.4972   -3.6255 N.am     1 ZINC000024877296   -1.0600
14     S14    -7.4064   -0.1677   -3.3594 S.o2     1 ZINC000024877296    2.6100
15     C15    -7.0764   -1.6235   -2.3286 C.3      1 ZINC000024877296   -0.6700
16     O16    -8.1034    0.8223   -2.6156 O.2      1 ZINC000024877296   -0.9500
17     O17    -7.8499   -0.5613   -4.6508 O.2      1 ZINC000024877296   -0.9500
18     C18    -3.6470   -0.2779   -3.9075 C.ar     1 ZINC000024877296   -0.1400
19     C19     1.4385   -0.9516   -3.1977 C.2      1 ZINC000024877296    0.0900
20     N20     2.4771   -0.9314   -2.4081 N.2      1 ZINC000024877296   -0.2800
21     N21     2.0389   -0.9888   -1.0804 N.pl3    1 ZINC000024877296   -0.3100
22     C22     2.8617   -0.9878    0.0549 C.ar     1 ZINC000024877296    0.1300
23     C23     2.5338   -0.2002    1.1503 C.ar     1 ZINC000024877296   -0.0900
24     C24     3.3451   -0.2009    2.2678 C.ar     1 ZINC000024877296   -0.1300
25     C25     4.4852   -0.9866    2.2964 C.ar     1 ZINC000024877296    0.1100
26     F26     5.2777   -0.9860    3.3905 F        1 ZINC000024877296   -0.1300
27     C27     4.8137   -1.7732    1.2050 C.ar     1 ZINC000024877296   -0.1400
28     C28     4.0022   -1.7788    0.0875 C.ar     1 ZINC000024877296   -0.0700
29     H29    -0.8106   -3.1601   -0.2535 H        1 ZINC000024877296    0.0600
30     H30     0.6285   -3.0182    0.7843 H        1 ZINC000024877296    0.0500
31     H31    -0.9839   -2.6532    1.4439 H        1 ZINC000024877296    0.0700
32     H32    -1.1702   -0.7155   -0.0983 H        1 ZINC000024877296    0.1200
33     H33     0.2581   -0.5683    0.9537 H        1 ZINC000024877296    0.0800
34     H34    -0.6467   -1.0688   -4.8324 H        1 ZINC000024877296    0.4100
35     H35    -2.3275   -2.1499   -6.3968 H        1 ZINC000024877296    0.1300
36     H36    -4.6527   -2.0282   -7.1907 H        1 ZINC000024877296    0.1400
37     H37    -6.3363   -0.7884   -5.8954 H        1 ZINC000024877296    0.1600
38     H38    -5.7032    1.3753   -3.2708 H        1 ZINC000024877296    0.4300
39     H39    -6.5990   -1.3105   -1.4001 H        1 ZINC000024877296    0.1300
40     H40    -8.0153   -2.1287   -2.1021 H        1 ZINC000024877296    0.1300
41     H41    -6.4166   -2.3059   -2.8643 H        1 ZINC000024877296    0.1300
42     H42    -3.3648    0.2137   -2.9882 H        1 ZINC000024877296    0.1400
43     H43     1.4612   -0.9153   -4.2768 H        1 ZINC000024877296    0.2000
44     H44     1.6449    0.4129    1.1282 H        1 ZINC000024877296    0.1400
45     H45     3.0905    0.4119    3.1199 H        1 ZINC000024877296    0.1500
46     H46     5.7032   -2.3853    1.2291 H        1 ZINC000024877296    0.1500
47     H47     4.2585   -2.3927   -0.7633 H        1 ZINC000024877296    0.1500
@<TRIPOS>BOND
1     1     2     1
2     1     29    1
3     1     30    1
4     1     31    1
5     2     3     1
6     2     32    1
7     2     33    1
8     3     21    1
9     3     4     2
10    4     5     1
11    4     19    1
12    5     6     2
13    5     7     am
14    7     8     1
15    7     34    1
16    8     18    ar
17    8     9     ar
18    9     10    ar
19    9     35    1
20    10    11    ar
21    10    36    1
22    11    12    ar
23    11    37    1
24    12    13    1
25    12    18    ar
26    13    14    am
27    13    38    1
28    14    15    1
29    14    16    2
30    14    17    2
31    15    39    1
32    15    40    1
33    15    41    1
34    18    42    1
35    19    20    2
36    19    43    1
37    20    21    1
38    21    22    1
39    22    28    ar
40    22    23    ar
41    23    24    ar
42    23    44    1
43    24    25    ar
44    24    45    1
45    25    26    1
46    25    27    ar
47    27    28    ar
48    27    46    1
49    28    47    1
@<TRIPOS>SUBSTRUCTURE
1   ZINC000024877296 1     RESIDUE    1   A     ZIN   1
@<TRIPOS>MOLECULE
ZINC000029953412
47    49    1     0     0
SMALL
USER_CHARGES
@<TRIPOS>ATOM
1      C1     -2.2254    1.9865    0.0143 C.3      1 ZINC000029953412   -0.0700
2      C2     -1.3808    0.7812   -0.3096 C.2      1 ZINC000029953412    0.1000
3      N3     -1.2742    0.2139   -1.4837 N.2      1 ZINC000029953412   -0.2900
4      N4     -0.3976   -0.8728   -1.3710 N.pl3    1 ZINC000029953412   -0.3700
5      C5     -0.0025   -1.7777   -2.4533 C.3      1 ZINC000029953412    0.1000
6      C6      0.0212   -0.9391   -0.0807 C.2      1 ZINC000029953412    0.0800
7      C7      0.9747   -1.9543    0.4950 C.3      1 ZINC000029953412   -0.0900
8      C8     -0.5701    0.0795    0.5947 C.2      1 ZINC000029953412   -0.0200
9      N9     -0.4060    0.3735    1.9609 N.am     1 ZINC000029953412   -0.6400
10     C10    -0.0092    1.6036    2.3426 C.2      1 ZINC000029953412    0.5600
11     O11     0.1459    2.4774    1.5115 O.2      1 ZINC000029953412   -0.5100
12     C12     0.2374    1.8905    3.7716 C.ar     1 ZINC000029953412   -0.1500
13     C13     0.0658    0.8881    4.7274 C.ar     1 ZINC000029953412   -0.0300
14     C14     0.2981    1.1624    6.0596 C.ar     1 ZINC000029953412   -0.1400
15     C15     0.6998    2.4278    6.4486 C.ar     1 ZINC000029953412    0.0100
16     C16     0.8713    3.4263    5.5060 C.ar     1 ZINC000029953412   -0.6900
17     S17     1.3826    5.0347    6.0123 S.o2     1 ZINC000029953412    2.6900
18     O18     0.9481    5.9313    4.9991 O.2      1 ZINC000029953412   -0.9400
19     O19     1.0082    5.1637    7.3770 O.2      1 ZINC000029953412   -0.9400
20     N20     3.0381    5.0564    5.9775 N.am     1 ZINC000029953412   -1.0500
21     C21     3.7154    4.8170    4.7777 C.ar     1 ZINC000029953412    0.1300
22     C22     3.1320    5.1663    3.5678 C.ar     1 ZINC000029953412   -0.1600
23     C23     3.8039    4.9290    2.3838 C.ar     1 ZINC000029953412   -0.0900
24     C24     5.0561    4.3437    2.4023 C.ar     1 ZINC000029953412   -0.1100
25     C25     5.6417    3.9933    3.6055 C.ar     1 ZINC000029953412   -0.1300
26     C26     4.9781    4.2333    4.7943 C.ar     1 ZINC000029953412    0.0700
27     F27     5.5502    3.8916    5.9695 F        1 ZINC000029953412   -0.1300
28     C28     0.6484    3.1637    4.1703 C.ar     1 ZINC000029953412    0.0400
29     H29    -1.6766    2.8935   -0.2396 H        1 ZINC000029953412    0.0900
30     H30    -3.1498    1.9479   -0.5619 H        1 ZINC000029953412    0.0700
31     H31    -2.4604    1.9900    1.0786 H        1 ZINC000029953412    0.0700
32     H32     0.8869   -1.3866   -2.9474 H        1 ZINC000029953412    0.0800
33     H33     0.2142   -2.7635   -2.0418 H        1 ZINC000029953412    0.0900
34     H34    -0.8147   -1.8562   -3.1760 H        1 ZINC000029953412    0.0900
35     H35     1.9960   -1.5836    0.4081 H        1 ZINC000029953412    0.0800
36     H36     0.7369   -2.1212    1.5455 H        1 ZINC000029953412    0.0800
37     H37     0.8807   -2.8922   -0.0523 H        1 ZINC000029953412    0.0800
38     H38    -0.5784   -0.3093    2.6280 H        1 ZINC000029953412    0.4000
39     H39    -0.2484   -0.0999    4.4251 H        1 ZINC000029953412    0.1400
40     H40     0.1657    0.3877    6.8003 H        1 ZINC000029953412    0.1400
41     H41     0.8799    2.6374    7.4926 H        1 ZINC000029953412    0.1500
42     H42     3.5379    5.2351    6.7893 H        1 ZINC000029953412    0.4300
43     H43     2.1534    5.6230    3.5516 H        1 ZINC000029953412    0.1700
44     H44     3.3498    5.2008    1.4424 H        1 ZINC000029953412    0.1400
45     H45     5.5783    4.1593    1.4751 H        1 ZINC000029953412    0.1400
46     H46     6.6200    3.5359    3.6165 H        1 ZINC000029953412    0.1400
47     H47     0.7830    3.9438    3.4356 H        1 ZINC000029953412    0.1600
@<TRIPOS>BOND
1     1     2     1
2     1     29    1
3     1     30    1
4     1     31    1
5     2     8     1
6     2     3     2
7     3     4     1
8     4     5     1
9     4     6     1
10    5     32    1
11    5     33    1
12    5     34    1
13    6     7     1
14    6     8     2
15    7     35    1
16    7     36    1
17    7     37    1
18    8     9     1
19    9     10    am
20    9     38    1
21    10    11    2
22    10    12    1
23    12    28    ar
24    12    13    ar
25    13    14    ar
26    13    39    1
27    14    15    ar
28    14    40    1
29    15    16    ar
30    15    41    1
31    16    17    1
32    16    28    ar
33    17    18    2
34    17    19    2
35    17    20    am
36    20    21    1
37    20    42    1
38    21    26    ar
39    21    22    ar
40    22    23    ar
41    22    43    1
42    23    24    ar
43    23    44    1
44    24    25    ar
45    24    45    1
46    25    26    ar
47    25    46    1
48    26    27    1
49    28    47    1
@<TRIPOS>SUBSTRUCTURE
1   ZINC000029953412 1     RESIDUE    1   A     ZIN   1

@<TRIPOS>MOLECULE
ZINC000029953412
46    48    1     0     0
SMALL
USER_CHARGES
@<TRIPOS>ATOM
1      C1     -1.6890    0.8241    0.3476 C.3      1 ZINC000029953412   -0.0700
2      C2     -0.7145   -0.3085    0.1507 C.2      1 ZINC000029953412    0.1000
3      N3     -0.5201   -0.9668   -0.9630 N.2      1 ZINC000029953412   -0.2900
4      N4      0.4630   -1.9383   -0.7360 N.pl3    1 ZINC000029953412   -0.3700
5      C5      0.9775   -2.8913   -1.7225 C.3      1 ZINC000029953412    0.1100
6      C6      0.8549   -1.8402    0.5608 C.2      1 ZINC000029953412    0.0700
7      C7      1.8956   -2.6901    1.2432 C.3      1 ZINC000029953412   -0.0900
8      C8      0.1432   -0.8331    1.1288 C.2      1 ZINC000029953412   -0.0100
9      N9      0.2421   -0.3987    2.4634 N.am     1 ZINC000029953412   -0.6500
10     C10     0.4583    0.9038    2.7340 C.2      1 ZINC000029953412    0.5600
11     O11     0.4598    1.7197    1.8326 O.2      1 ZINC000029953412   -0.5100
12     C12     0.6934    1.3403    4.1266 C.ar     1 ZINC000029953412   -0.1600
13     C13     0.6980    0.4054    5.1628 C.ar     1 ZINC000029953412   -0.0500
14     C14     0.9185    0.8195    6.4604 C.ar     1 ZINC000029953412   -0.1500
15     C15     1.1344    2.1580    6.7353 C.ar     1 ZINC000029953412    0.0000
16     C16     1.1307    3.0901    5.7126 C.ar     1 ZINC000029953412   -0.6200
17     S17     1.4061    4.7926    6.0738 S.o2     1 ZINC000029953412    2.6000
18     O18     0.8171    5.5287    5.0106 O.2      1 ZINC000029953412   -1.0200
19     O19     1.0497    4.9762    7.4371 O.2      1 ZINC000029953412   -1.0200
20     N20     3.0381    5.0564    5.9775 N.pl3    1 ZINC000029953412   -1.0800
21     C21     3.5554    6.3330    6.2186 C.ar     1 ZINC000029953412    0.2500
22     C22     2.7032    7.3788    6.5444 C.ar     1 ZINC000029953412   -0.2500
23     C23     3.2174    8.6392    6.7825 C.ar     1 ZINC000029953412   -0.0700
24     C24     4.5792    8.8603    6.6964 C.ar     1 ZINC000029953412   -0.2000
25     C25     5.4328    7.8213    6.3716 C.ar     1 ZINC000029953412   -0.1100
26     C26     4.9262    6.5565    6.1380 C.ar     1 ZINC000029953412    0.0300
27     F27     5.7598    5.5416    5.8212 F        1 ZINC000029953412   -0.1500
28     C28     0.9176    2.6887    4.4102 C.ar     1 ZINC000029953412    0.0400
29     H29    -1.2446    1.7523   -0.0117 H        1 ZINC000029953412    0.0900
30     H30    -2.6024    0.6187   -0.2107 H        1 ZINC000029953412    0.0700
31     H31    -1.9248    0.9204    1.4074 H        1 ZINC000029953412    0.0700
32     H32     1.8325   -2.4544   -2.2383 H        1 ZINC000029953412    0.0700
33     H33     1.2868   -3.8061   -1.2169 H        1 ZINC000029953412    0.0900
34     H34     0.1959   -3.1226   -2.4462 H        1 ZINC000029953412    0.0900
35     H35     2.8741   -2.2217    1.1365 H        1 ZINC000029953412    0.0800
36     H36     1.6512   -2.7841    2.3012 H        1 ZINC000029953412    0.0800
37     H37     1.9144   -3.6791    0.7853 H        1 ZINC000029953412    0.0700
38     H38     0.1548   -1.0368    3.1888 H        1 ZINC000029953412    0.4000
39     H39     0.5289   -0.6397    4.9496 H        1 ZINC000029953412    0.1300
40     H40     0.9223    0.0971    7.2632 H        1 ZINC000029953412    0.1300
41     H41     1.3062    2.4769    7.7528 H        1 ZINC000029953412    0.1400
42     H42     1.6389    7.2079    6.6114 H        1 ZINC000029953412    0.1000
43     H43     2.5542    9.4530    7.0361 H        1 ZINC000029953412    0.1100
44     H44     4.9777    9.8466    6.8828 H        1 ZINC000029953412    0.1100
45     H45     6.4962    7.9975    6.3047 H        1 ZINC000029953412    0.1200
46     H46     0.9153    3.4171    3.6129 H        1 ZINC000029953412    0.1500
@<TRIPOS>BOND
1     1     2     1
2     1     29    1
3     1     30    1
4     1     31    1
5     2     8     1
6     2     3     2
7     3     4     1
8     4     5     1
9     4     6     1
10    5     32    1
11    5     33    1
12    5     34    1
13    6     7     1
14    6     8     2
15    7     35    1
16    7     36    1
17    7     37    1
18    8     9     1
19    9     10    am
20    9     38    1
21    10    11    2
22    10    12    1
23    12    28    ar
24    12    13    ar
25    13    14    ar
26    13    39    1
27    14    15    ar
28    14    40    1
29    15    16    ar
30    15    41    1
31    16    17    1
32    16    28    ar
33    17    18    2
34    17    19    2
35    17    20    1
36    20    21    1
37    21    26    ar
38    21    22    ar
39    22    23    ar
40    22    42    1
41    23    24    ar
42    23    43    1
43    24    25    ar
44    24    44    1
45    25    26    ar
46    25    45    1
47    26    27    1
48    28    46    1
@<TRIPOS>SUBSTRUCTURE
1   ZINC000029953412 1     RESIDUE    1   A     ZIN   1
@<TRIPOS>MOLECULE
ZINC000032600408
43    45    1     0     0
SMALL
USER_CHARGES
@<TRIPOS>ATOM
1      C1      0.7268   -0.4454    1.4435 C.3      1 ZINC000032600408   -0.1600
2      C2     -0.1813    0.5380    2.1846 C.3      1 ZINC000032600408    0.1400
3      H3     -0.1595    1.5038    1.6799 H        1 ZINC000032600408    0.1300
4      C4     -1.5922    0.0085    2.1954 C.2      1 ZINC000032600408    0.4900
5      O5     -2.1481   -0.2147    3.2500 O.2      1 ZINC000032600408   -0.4900
6      N6     -2.2363   -0.2169    1.0331 N.am     1 ZINC000032600408   -0.6600
7      C7     -3.5087   -0.7989    1.0398 C.ar     1 ZINC000032600408    0.1600
8      C8     -3.8783   -1.6740    0.0264 C.ar     1 ZINC000032600408   -0.2500
9      C9     -5.1346   -2.2493    0.0321 C.ar     1 ZINC000032600408   -0.0500
10     C10    -6.0269   -1.9569    1.0452 C.ar     1 ZINC000032600408   -0.2700
11     C11    -5.6632   -1.0824    2.0624 C.ar     1 ZINC000032600408    0.3000
12     N12    -6.5656   -0.7875    3.0868 N.pl3    1 ZINC000032600408   -1.0700
13     S13    -8.0700   -1.4798    3.0898 S.o2     1 ZINC000032600408    2.6000
14     O14    -8.7568   -0.9519    1.9634 O.2      1 ZINC000032600408   -1.0300
15     O15    -7.8708   -2.8715    3.2967 O.2      1 ZINC000032600408   -1.0100
16     C16    -8.9168   -0.8812    4.5143 C.ar     1 ZINC000032600408   -0.6200
17     C17   -10.0423   -0.0927    4.3688 C.ar     1 ZINC000032600408   -0.0200
18     C18   -10.7069    0.3771    5.4865 C.ar     1 ZINC000032600408   -0.1500
19     C19   -10.2457    0.0589    6.7500 C.ar     1 ZINC000032600408   -0.0700
20     C20    -9.1199   -0.7297    6.8969 C.ar     1 ZINC000032600408   -0.1400
21     C21    -8.4582   -1.2052    5.7790 C.ar     1 ZINC000032600408    0.0600
22     Cl22   -7.0443   -2.1956    5.9627 Cl       1 ZINC000032600408   -0.0300
23     C23    -4.4005   -0.5069    2.0620 C.ar     1 ZINC000032600408   -0.1700
24     N24     0.2915    0.6961    3.5622 N.pl3    1 ZINC000032600408   -0.3500
25     C25     0.8508   -0.2663    4.3250 C.2      1 ZINC000032600408    0.0700
26     C26     1.1474    0.2802    5.5268 C.2      1 ZINC000032600408   -0.2800
27     C27     0.7560    1.6227    5.4974 C.2      1 ZINC000032600408    0.0500
28     N28     0.2483    1.8747    4.3181 N.2      1 ZINC000032600408   -0.2900
29     H29     1.7473   -0.0624    1.4357 H        1 ZINC000032600408    0.0800
30     H30     0.7050   -1.4112    1.9482 H        1 ZINC000032600408    0.0700
31     H31     0.3750   -0.5630    0.4185 H        1 ZINC000032600408    0.0900
32     H32    -1.8177    0.0244    0.1920 H        1 ZINC000032600408    0.4000
33     H33    -3.1830   -1.9047   -0.7672 H        1 ZINC000032600408    0.1000
34     H34    -5.4197   -2.9288   -0.7575 H        1 ZINC000032600408    0.1100
35     H35    -7.0082   -2.4079    1.0466 H        1 ZINC000032600408    0.1000
36     H36   -10.4027    0.1568    3.3818 H        1 ZINC000032600408    0.1500
37     H37   -11.5865    0.9933    5.3723 H        1 ZINC000032600408    0.1300
38     H38   -10.7648    0.4268    7.6227 H        1 ZINC000032600408    0.1300
39     H39    -8.7596   -0.9783    7.8843 H        1 ZINC000032600408    0.1400
40     H40    -4.1152    0.1727    2.8514 H        1 ZINC000032600408    0.1300
41     H41     1.0293   -1.2896    4.0294 H        1 ZINC000032600408    0.1700
42     H42     1.6050   -0.2301    6.3614 H        1 ZINC000032600408    0.1500
43     H43     0.8596    2.3304    6.3066 H        1 ZINC000032600408    0.1800
@<TRIPOS>BOND
1     1     2     1
2     1     29    1
3     1     30    1
4     1     31    1
5     2     3     1
6     2     4     1
7     2     24    1
8     4     5     2
9     4     6     am
10    6     7     1
11    6     32    1
12    7     23    ar
13    7     8     ar
14    8     9     ar
15    8     33    1
16    9     10    ar
17    9     34    1
18    10    11    ar
19    10    35    1
20    11    12    1
21    11    23    ar
22    12    13    1
23    13    14    2
24    13    15    2
25    13    16    1
26    16    21    ar
27    16    17    ar
28    17    18    ar
29    17    36    1
30    18    19    ar
31    18    37    1
32    19    20    ar
33    19    38    1
34    20    21    ar
35    20    39    1
36    21    22    1
37    23    40    1
38    24    28    1
39    24    25    1
40    25    26    2
41    25    41    1
42    26    27    1
43    26    42    1
44    27    28    2
45    27    43    1
@<TRIPOS>SUBSTRUCTURE
1   ZINC000032600408 1     RESIDUE    1   A     ZIN   1

@<TRIPOS>MOLECULE
ZINC000032600408
44    46    1     0     0
SMALL
USER_CHARGES
@<TRIPOS>ATOM
1      C1      0.7656   -0.7937    1.2139 C.3      1 ZINC000032600408   -0.1600
2      C2     -0.1006    0.2554    1.9137 C.3      1 ZINC000032600408    0.1500
3      H3     -0.0708    1.1869    1.3485 H        1 ZINC000032600408    0.1300
4      C4     -1.5221   -0.2387    1.9931 C.2      1 ZINC000032600408    0.5000
5      O5     -2.0548   -0.3821    3.0733 O.2      1 ZINC000032600408   -0.4900
6      N6     -2.2014   -0.5211    0.8639 N.am     1 ZINC000032600408   -0.6700
7      C7     -3.4851   -1.0729    0.9391 C.ar     1 ZINC000032600408    0.1700
8      C8     -3.8989   -2.0024   -0.0066 C.ar     1 ZINC000032600408   -0.1500
9      C9     -5.1663   -2.5478    0.0668 C.ar     1 ZINC000032600408   -0.0700
10     C10    -6.0258   -2.1715    1.0805 C.ar     1 ZINC000032600408   -0.1800
11     C11    -5.6179   -1.2423    2.0302 C.ar     1 ZINC000032600408    0.1800
12     N12    -6.4872   -0.8625    3.0553 N.am     1 ZINC000032600408   -1.0500
13     S13    -7.3343   -2.0137    3.8917 S.o2     1 ZINC000032600408    2.6900
14     O14    -6.4025   -3.0328    4.2271 O.2      1 ZINC000032600408   -0.9300
15     O15    -8.1076   -1.3184    4.8600 O.2      1 ZINC000032600408   -0.9300
16     C16    -8.4804   -2.7382    2.7665 C.ar     1 ZINC000032600408   -0.6800
17     C17    -8.3736   -4.0760    2.4369 C.ar     1 ZINC000032600408   -0.0100
18     C18    -9.2728   -4.6447    1.5539 C.ar     1 ZINC000032600408   -0.1300
19     C19   -10.2788   -3.8755    1.0000 C.ar     1 ZINC000032600408   -0.0500
20     C20   -10.3867   -2.5372    1.3290 C.ar     1 ZINC000032600408   -0.1300
21     C21    -9.4910   -1.9692    2.2171 C.ar     1 ZINC000032600408    0.0500
22     Cl22   -9.6259   -0.2886    2.6307 Cl       1 ZINC000032600408   -0.0400
23     C23    -4.3440   -0.6964    1.9619 C.ar     1 ZINC000032600408   -0.1300
24     N24     0.4117    0.4884    3.2663 N.pl3    1 ZINC000032600408   -0.3600
25     C25     0.9695   -0.4374    4.0743 C.2      1 ZINC000032600408    0.0700
26     C26     1.3097    0.1763    5.2313 C.2      1 ZINC000032600408   -0.2700
27     C27     0.9475    1.5232    5.1268 C.2      1 ZINC000032600408    0.0500
28     N28     0.4146    1.7127    3.9470 N.2      1 ZINC000032600408   -0.2900
29     H29     1.7938   -0.4364    1.1565 H        1 ZINC000032600408    0.0900
30     H30     0.7358   -1.7253    1.7792 H        1 ZINC000032600408    0.0800
31     H31     0.3844   -0.9671    0.2075 H        1 ZINC000032600408    0.0900
32     H32    -1.8005   -0.3420   -0.0010 H        1 ZINC000032600408    0.4100
33     H33    -3.2293   -2.2988   -0.8005 H        1 ZINC000032600408    0.1300
34     H34    -5.4858   -3.2698   -0.6702 H        1 ZINC000032600408    0.1400
35     H35    -7.0160   -2.5994    1.1350 H        1 ZINC000032600408    0.1300
36     H36    -6.5949    0.0756    3.2773 H        1 ZINC000032600408    0.4300
37     H37    -7.5873   -4.6774    2.8688 H        1 ZINC000032600408    0.1600
38     H38    -9.1889   -5.6902    1.2966 H        1 ZINC000032600408    0.1400
39     H39   -10.9805   -4.3201    0.3098 H        1 ZINC000032600408    0.1400
40     H40   -11.1728   -1.9363    0.8961 H        1 ZINC000032600408    0.1500
41     H41    -4.0243    0.0255    2.6988 H        1 ZINC000032600408    0.1500
42     H42     1.1175   -1.4811    3.8398 H        1 ZINC000032600408    0.1700
43     H43     1.7778   -0.2914    6.0849 H        1 ZINC000032600408    0.1500
44     H44     1.0880    2.2776    5.8868 H        1 ZINC000032600408    0.1900
@<TRIPOS>BOND
1     1     2     1
2     1     29    1
3     1     30    1
4     1     31    1
5     2     3     1
6     2     4     1
7     2     24    1
8     4     5     2
9     4     6     am
10    6     7     1
11    6     32    1
12    7     23    ar
13    7     8     ar
14    8     9     ar
15    8     33    1
16    9     10    ar
17    9     34    1
18    10    11    ar
19    10    35    1
20    11    12    1
21    11    23    ar
22    12    13    am
23    12    36    1
24    13    14    2
25    13    15    2
26    13    16    1
27    16    21    ar
28    16    17    ar
29    17    18    ar
30    17    37    1
31    18    19    ar
32    18    38    1
33    19    20    ar
34    19    39    1
35    20    21    ar
36    20    40    1
37    21    22    1
38    23    41    1
39    24    28    1
40    24    25    1
41    25    26    2
42    25    42    1
43    26    27    1
44    26    43    1
45    27    28    2
46    27    44    1
@<TRIPOS>SUBSTRUCTURE
1   ZINC000032600408 1     RESIDUE    1   A     ZIN   1
@<TRIPOS>MOLECULE
ZINC000035306318
53    56    1     0     0
SMALL
USER_CHARGES
@<TRIPOS>ATOM
1      C1     -0.0187    1.5258    0.0104 C.3      1 ZINC000035306318   -0.1500
2      C2      0.0021   -0.0041    0.0020 C.3      1 ZINC000035306318   -0.1200
3      C3     -1.4333   -0.5336    0.0129 C.3      1 ZINC000035306318    0.1300
4      C4     -2.1941    0.0029    1.2270 C.3      1 ZINC000035306318   -0.1500
5      N5     -2.1270   -0.1765   -1.2367 N.am     1 ZINC000035306318   -0.7100
6      C6     -2.4630   -1.3339   -1.8345 C.2      1 ZINC000035306318    0.7100
7      O7     -3.0529   -1.4001   -2.8950 O.2      1 ZINC000035306318   -0.5200
8      N8     -2.0753   -2.4039   -1.1311 N.am     1 ZINC000035306318   -0.3800
9      N9     -2.2987   -3.7291   -1.5268 N.am     1 ZINC000035306318   -0.5100
10     C10    -1.5595   -4.2711   -2.5149 C.2      1 ZINC000035306318    0.5200
11     O11    -0.7008   -3.6116   -3.0614 O.2      1 ZINC000035306318   -0.4900
12     C12    -1.7998   -5.6966   -2.9406 C.3      1 ZINC000035306318    0.0500
13     N13    -0.8731   -6.0465   -4.0254 N.3      1 ZINC000035306318   -0.5100
14     C14     0.5180   -6.0446   -3.5510 C.3      1 ZINC000035306318    0.0600
15     C15     1.4603   -6.0125   -4.7605 C.3      1 ZINC000035306318   -0.0400
16     C16     1.0103   -7.0803   -5.7350 C.2      1 ZINC000035306318   -0.1600
17     C17    -0.1935   -7.6850   -5.6865 C.2      1 ZINC000035306318   -0.1000
18     C18    -0.3813   -8.6343   -6.6844 C.2      1 ZINC000035306318   -0.1200
19     C19     0.6384   -8.7982   -7.5228 C.2      1 ZINC000035306318   -0.2200
20     S20     1.9487   -7.7145   -7.0768 S.3      1 ZINC000035306318    0.1000
21     C21    -1.2302   -7.3385   -4.6266 C.3      1 ZINC000035306318    0.2000
22     H22    -1.2385   -8.1103   -3.8569 H        1 ZINC000035306318    0.0700
23     C23    -2.5928   -7.2446   -5.2635 C.ar     1 ZINC000035306318   -0.0800
24     C24    -2.9577   -6.1015   -5.9498 C.ar     1 ZINC000035306318   -0.0800
25     C25    -4.2075   -6.0154   -6.5340 C.ar     1 ZINC000035306318   -0.1200
26     C26    -5.0923   -7.0726   -6.4323 C.ar     1 ZINC000035306318   -0.1200
27     C27    -4.7271   -8.2161   -5.7467 C.ar     1 ZINC000035306318   -0.1200
28     C28    -3.4756   -8.3039   -5.1662 C.ar     1 ZINC000035306318   -0.1100
29     C29    -1.4426   -2.0494    0.0048 C.2      1 ZINC000035306318    0.5300
30     O30    -0.9769   -2.7890    0.8450 O.2      1 ZINC000035306318   -0.4500
31     H31     1.0039    1.9031    0.0027 H        1 ZINC000035306318    0.0700
32     H32    -0.5459    1.8868   -0.8726 H        1 ZINC000035306318    0.0600
33     H33    -0.5289    1.8773    0.9072 H        1 ZINC000035306318    0.0700
34     H34     0.5123   -0.3556   -0.8948 H        1 ZINC000035306318    0.0800
35     H35     0.5293   -0.3651    0.8851 H        1 ZINC000035306318    0.0900
36     H36    -2.2192    1.0919    1.1880 H        1 ZINC000035306318    0.0900
37     H37    -3.2129   -0.3845    1.2177 H        1 ZINC000035306318    0.0700
38     H38    -1.6923   -0.3165    2.1404 H        1 ZINC000035306318    0.0900
39     H39    -2.3068    0.7186   -1.5643 H        1 ZINC000035306318    0.4400
40     H40    -2.9855   -4.2566   -1.0898 H        1 ZINC000035306318    0.4300
41     H41    -1.6346   -6.3617   -2.0930 H        1 ZINC000035306318    0.0800
42     H42    -2.8264   -5.8029   -3.2912 H        1 ZINC000035306318    0.1200
43     H43     0.6905   -5.1648   -2.9311 H        1 ZINC000035306318    0.1000
44     H44     0.7052   -6.9457   -2.9670 H        1 ZINC000035306318    0.0400
45     H45     1.4126   -5.0340   -5.2385 H        1 ZINC000035306318    0.0900
46     H46     2.4813   -6.2157   -4.4373 H        1 ZINC000035306318    0.0800
47     H47    -1.2956   -9.2023   -6.7730 H        1 ZINC000035306318    0.1400
48     H48     0.6582   -9.4911   -8.3510 H        1 ZINC000035306318    0.1600
49     H49    -2.2664   -5.2756   -6.0293 H        1 ZINC000035306318    0.1300
50     H50    -4.4929   -5.1221   -7.0696 H        1 ZINC000035306318    0.1200
51     H51    -6.0691   -7.0051   -6.8881 H        1 ZINC000035306318    0.1200
52     H52    -5.4185   -9.0419   -5.6670 H        1 ZINC000035306318    0.1200
53     H53    -3.1903   -9.1972   -4.6306 H        1 ZINC000035306318    0.1200
@<TRIPOS>BOND
1     1     2     1
2     1     31    1
3     1     32    1
4     1     33    1
5     2     3     1
6     2     34    1
7     2     35    1
8     3     29    1
9     3     4     1
10    3     5     1
11    4     36    1
12    4     37    1
13    4     38    1
14    5     6     am
15    5     39    1
16    6     7     2
17    6     8     am
18    8     9     1
19    8     29    am
20    9     10    am
21    9     40    1
22    10    11    2
23    10    12    1
24    12    13    1
25    12    41    1
26    12    42    1
27    13    21    1
28    13    14    1
29    14    15    1
30    14    43    1
31    14    44    1
32    15    16    1
33    15    45    1
34    15    46    1
35    16    20    1
36    16    17    2
37    17    18    1
38    17    21    1
39    18    19    2
40    18    47    1
41    19    20    1
42    19    48    1
43    21    22    1
44    21    23    1
45    23    28    ar
46    23    24    ar
47    24    25    ar
48    24    49    1
49    25    26    ar
50    25    50    1
51    26    27    ar
52    26    51    1
53    27    28    ar
54    27    52    1
55    28    53    1
56    29    30    2
@<TRIPOS>SUBSTRUCTURE
1   ZINC000035306318 1     RESIDUE    1   A     ZIN   1

@<TRIPOS>MOLECULE
ZINC000035306318
54    57    1     0     0
SMALL
USER_CHARGES
@<TRIPOS>ATOM
1      C1     -0.0187    1.5258    0.0104 C.3      1 ZINC000035306318   -0.1600
2      C2      0.0021   -0.0041    0.0020 C.3      1 ZINC000035306318   -0.1200
3      C3      0.7421   -0.5109    1.2415 C.3      1 ZINC000035306318    0.1400
4      C4      2.1601    0.0616    1.2916 C.3      1 ZINC000035306318   -0.1600
5      N5     -0.0021   -0.1681    2.4658 N.am     1 ZINC000035306318   -0.7000
6      C6     -0.3227   -1.3318    3.0597 C.2      1 ZINC000035306318    0.7100
7      O7     -0.9445   -1.4099    4.1011 O.2      1 ZINC000035306318   -0.5200
8      N8      0.1194   -2.3934    2.3760 N.am     1 ZINC000035306318   -0.3800
9      N9     -0.0784   -3.7226    2.7720 N.am     1 ZINC000035306318   -0.4800
10     C10    -1.2897   -4.2957    2.6276 C.2      1 ZINC000035306318    0.5100
11     O11    -2.2085   -3.6607    2.1549 O.2      1 ZINC000035306318   -0.5000
12     C12    -1.5024   -5.7255    3.0536 C.3      1 ZINC000035306318   -0.0200
13     N13    -2.8959   -6.1114    2.7947 N.4      1 ZINC000035306318   -0.3700
14     H14    -3.5145   -5.4583    3.2516 H        1 ZINC000035306318    0.4300
15     C15    -3.1468   -6.0892    1.3473 C.3      1 ZINC000035306318   -0.0100
16     C16    -4.6585   -6.1634    1.0972 C.3      1 ZINC000035306318   -0.0700
17     C17    -5.2099   -7.3090    1.9196 C.2      1 ZINC000035306318   -0.2100
18     C18    -4.5343   -7.9030    2.9239 C.2      1 ZINC000035306318   -0.1300
19     C19    -5.2373   -8.9349    3.5342 C.2      1 ZINC000035306318   -0.1100
20     C20    -6.4510   -9.1737    3.0443 C.2      1 ZINC000035306318   -0.2000
21     S21    -6.7852   -8.0589    1.7266 S.3      1 ZINC000035306318    0.2000
22     C22    -3.1342   -7.4601    3.3242 C.3      1 ZINC000035306318    0.1600
23     H23    -2.4002   -8.1527    2.9125 H        1 ZINC000035306318    0.1600
24     C24    -3.0214   -7.4385    4.8268 C.ar     1 ZINC000035306318   -0.1400
25     C25    -3.5304   -6.3712    5.5428 C.ar     1 ZINC000035306318   -0.1200
26     C26    -3.4269   -6.3514    6.9212 C.ar     1 ZINC000035306318   -0.1000
27     C27    -2.8148   -7.3990    7.5835 C.ar     1 ZINC000035306318   -0.0900
28     C28    -2.3066   -8.4667    6.8675 C.ar     1 ZINC000035306318   -0.1000
29     C29    -2.4139   -8.4886    5.4895 C.ar     1 ZINC000035306318   -0.0900
30     C30     0.7778   -2.0262    1.2589 C.2      1 ZINC000035306318    0.5300
31     O31     1.2911   -2.7560    0.4381 O.2      1 ZINC000035306318   -0.4400
32     H32     1.0039    1.9031    0.0027 H        1 ZINC000035306318    0.0700
33     H33    -0.5459    1.8868   -0.8726 H        1 ZINC000035306318    0.0700
34     H34    -0.5289    1.8773    0.9072 H        1 ZINC000035306318    0.0600
35     H35    -1.0205   -0.3814    0.0098 H        1 ZINC000035306318    0.0800
36     H36     0.5123   -0.3556   -0.8948 H        1 ZINC000035306318    0.1000
37     H37     2.1114    1.1498    1.3290 H        1 ZINC000035306318    0.0900
38     H38     2.6708   -0.3100    2.1799 H        1 ZINC000035306318    0.0700
39     H39     2.7082   -0.2473    0.4014 H        1 ZINC000035306318    0.0900
40     H40    -0.2184    0.7230    2.7822 H        1 ZINC000035306318    0.4500
41     H41     0.6565   -4.2305    3.1501 H        1 ZINC000035306318    0.4400
42     H42    -0.8343   -6.3760    2.4891 H        1 ZINC000035306318    0.1700
43     H43    -1.2903   -5.8228    4.1183 H        1 ZINC000035306318    0.1700
44     H44    -2.7524   -5.1657    0.9233 H        1 ZINC000035306318    0.1500
45     H45    -2.6579   -6.9438    0.8796 H        1 ZINC000035306318    0.1400
46     H46    -5.1293   -5.2293    1.4036 H        1 ZINC000035306318    0.1100
47     H47    -4.8489   -6.3437    0.0393 H        1 ZINC000035306318    0.1300
48     H48    -4.8250   -9.5061    4.3528 H        1 ZINC000035306318    0.1500
49     H49    -7.1275   -9.9362    3.4013 H        1 ZINC000035306318    0.1800
50     H50    -4.0087   -5.5528    5.0254 H        1 ZINC000035306318    0.1200
51     H51    -3.8240   -5.5172    7.4805 H        1 ZINC000035306318    0.1400
52     H52    -2.7333   -7.3832    8.6603 H        1 ZINC000035306318    0.1400
53     H53    -1.8280   -9.2850    7.3849 H        1 ZINC000035306318    0.1400
54     H54    -2.0168   -9.3227    4.9301 H        1 ZINC000035306318    0.1400
@<TRIPOS>BOND
1     1     2     1
2     1     32    1
3     1     33    1
4     1     34    1
5     2     3     1
6     2     35    1
7     2     36    1
8     3     30    1
9     3     4     1
10    3     5     1
11    4     37    1
12    4     38    1
13    4     39    1
14    5     6     am
15    5     40    1
16    6     7     2
17    6     8     am
18    8     9     1
19    8     30    am
20    9     10    am
21    9     41    1
22    10    11    2
23    10    12    1
24    12    13    1
25    12    42    1
26    12    43    1
27    13    14    1
28    13    22    1
29    13    15    1
30    15    16    1
31    15    44    1
32    15    45    1
33    16    17    1
34    16    46    1
35    16    47    1
36    17    21    1
37    17    18    2
38    18    19    1
39    18    22    1
40    19    20    2
41    19    48    1
42    20    21    1
43    20    49    1
44    22    23    1
45    22    24    1
46    24    29    ar
47    24    25    ar
48    25    26    ar
49    25    50    1
50    26    27    ar
51    26    51    1
52    27    28    ar
53    27    52    1
54    28    29    ar
55    28    53    1
56    29    54    1
57    30    31    2
@<TRIPOS>SUBSTRUCTURE
1   ZINC000035306318 1     RESIDUE    1   A     ZIN   1

@<TRIPOS>MOLECULE
ZINC000035306318
54    57    1     0     0
SMALL
USER_CHARGES
@<TRIPOS>ATOM
1      C1     -0.8380    1.8676    0.3515 C.3      1 ZINC000035306318   -0.1600
2      C2     -0.6719    0.3476    0.2971 C.3      1 ZINC000035306318   -0.1200
3      C3      0.0903   -0.1268    1.5361 C.3      1 ZINC000035306318    0.1400
4      C4      1.4464    0.5750    1.6332 C.3      1 ZINC000035306318   -0.1600
5      N5     -0.7051    0.1048    2.7541 N.am     1 ZINC000035306318   -0.7000
6      C6     -0.9245   -1.1025    3.3057 C.2      1 ZINC000035306318    0.7100
7      O7     -1.5548   -1.2724    4.3309 O.2      1 ZINC000035306318   -0.5300
8      N8     -0.3712   -2.0951    2.5996 N.am     1 ZINC000035306318   -0.3800
9      N9     -0.4490   -3.4491    2.9509 N.am     1 ZINC000035306318   -0.4800
10     C10    -1.5976   -4.1290    2.7637 C.2      1 ZINC000035306318    0.5100
11     O11    -2.5638   -3.5686    2.2912 O.2      1 ZINC000035306318   -0.5000
12     C12    -1.6812   -5.5854    3.1416 C.3      1 ZINC000035306318   -0.0200
13     N13    -3.0269   -6.0926    2.8418 N.4      1 ZINC000035306318   -0.3600
14     H14    -3.2434   -5.9145    1.8725 H        1 ZINC000035306318    0.4300
15     C15    -4.0073   -5.4066    3.6942 C.3      1 ZINC000035306318   -0.0300
16     C16    -5.4188   -5.6842    3.1617 C.3      1 ZINC000035306318   -0.0600
17     C17    -5.5499   -7.1776    2.9487 C.2      1 ZINC000035306318   -0.2100
18     C18    -4.5011   -8.0243    2.9167 C.2      1 ZINC000035306318   -0.1300
19     C19    -4.8623   -9.3507    2.7122 C.2      1 ZINC000035306318   -0.1200
20     C20    -6.1662   -9.5788    2.5787 C.2      1 ZINC000035306318   -0.2000
21     S21    -7.0468   -8.0630    2.7109 S.3      1 ZINC000035306318    0.2000
22     C22    -3.0694   -7.5388    3.0925 C.3      1 ZINC000035306318    0.1600
23     H23    -2.4205   -8.0490    2.3807 H        1 ZINC000035306318    0.1500
24     C24    -2.6061   -7.8294    4.4968 C.ar     1 ZINC000035306318   -0.1500
25     C25    -1.3210   -8.2871    4.7198 C.ar     1 ZINC000035306318   -0.1000
26     C26    -0.8960   -8.5537    6.0079 C.ar     1 ZINC000035306318   -0.1100
27     C27    -1.7560   -8.3620    7.0730 C.ar     1 ZINC000035306318   -0.0800
28     C28    -3.0409   -7.9033    6.8501 C.ar     1 ZINC000035306318   -0.1100
29     C29    -3.4644   -7.6327    5.5624 C.ar     1 ZINC000035306318   -0.1000
30     C30     0.2694   -1.6317    1.5082 C.2      1 ZINC000035306318    0.5300
31     O31     0.8645   -2.2831    0.6767 O.2      1 ZINC000035306318   -0.4400
32     H32     0.1441    2.3397    0.3767 H        1 ZINC000035306318    0.0700
33     H33    -1.3810    2.2055   -0.5312 H        1 ZINC000035306318    0.0700
34     H34    -1.3954    2.1404    1.2476 H        1 ZINC000035306318    0.0600
35     H35    -1.6540   -0.1245    0.2719 H        1 ZINC000035306318    0.0800
36     H36    -0.1145    0.0748   -0.5989 H        1 ZINC000035306318    0.1000
37     H37     1.2939    1.6521    1.7026 H        1 ZINC000035306318    0.0900
38     H38     1.9739    0.2249    2.5205 H        1 ZINC000035306318    0.0700
39     H39     2.0374    0.3481    0.7459 H        1 ZINC000035306318    0.0900
40     H40    -1.0107    0.9608    3.0928 H        1 ZINC000035306318    0.4500
41     H41     0.3238   -3.8973    3.3288 H        1 ZINC000035306318    0.4400
42     H42    -0.9443   -6.1515    2.5718 H        1 ZINC000035306318    0.1700
43     H43    -1.4801   -5.6965    4.2071 H        1 ZINC000035306318    0.1700
44     H44    -3.9240   -5.7771    4.7159 H        1 ZINC000035306318    0.1400
45     H45    -3.8164   -4.3336    3.6781 H        1 ZINC000035306318    0.1500
46     H46    -6.1595   -5.3487    3.8875 H        1 ZINC000035306318    0.1300
47     H47    -5.5655   -5.1625    2.2159 H        1 ZINC000035306318    0.1100
48     H48    -4.1318  -10.1448    2.6645 H        1 ZINC000035306318    0.1500
49     H49    -6.6150  -10.5471    2.4136 H        1 ZINC000035306318    0.1800
50     H50    -0.6491   -8.4369    3.8876 H        1 ZINC000035306318    0.1300
51     H51     0.1078   -8.9120    6.1821 H        1 ZINC000035306318    0.1400
52     H52    -1.4242   -8.5709    8.0794 H        1 ZINC000035306318    0.1400
53     H53    -3.7129   -7.7539    7.6823 H        1 ZINC000035306318    0.1400
54     H54    -4.4683   -7.2744    5.3882 H        1 ZINC000035306318    0.1300
@<TRIPOS>BOND
1     1     2     1
2     1     32    1
3     1     33    1
4     1     34    1
5     2     3     1
6     2     35    1
7     2     36    1
8     3     30    1
9     3     4     1
10    3     5     1
11    4     37    1
12    4     38    1
13    4     39    1
14    5     6     am
15    5     40    1
16    6     7     2
17    6     8     am
18    8     9     1
19    8     30    am
20    9     10    am
21    9     41    1
22    10    11    2
23    10    12    1
24    12    13    1
25    12    42    1
26    12    43    1
27    13    14    1
28    13    22    1
29    13    15    1
30    15    16    1
31    15    44    1
32    15    45    1
33    16    17    1
34    16    46    1
35    16    47    1
36    17    21    1
37    17    18    2
38    18    19    1
39    18    22    1
40    19    20    2
41    19    48    1
42    20    21    1
43    20    49    1
44    22    23    1
45    22    24    1
46    24    29    ar
47    24    25    ar
48    25    26    ar
49    25    50    1
50    26    27    ar
51    26    51    1
52    27    28    ar
53    27    52    1
54    28    29    ar
55    28    53    1
56    29    54    1
57    30    31    2
@<TRIPOS>SUBSTRUCTURE
1   ZINC000035306318 1     RESIDUE    1   A     ZIN   1
@<TRIPOS>MOLECULE
ZINC000004581097
38    40    1     0     0
SMALL
USER_CHARGES
@<TRIPOS>ATOM
1      O1      0.0021   -0.0041    0.0020 O.2      1 ZINC000004581097   -0.4500
2      C2     -0.0144    1.2114    0.0087 C.2      1 ZINC000004581097    0.5500
3      N3      1.1435    1.9011    0.0014 N.am     1 ZINC000004581097   -0.7200
4      C4      2.4220    1.1860   -0.0147 C.3      1 ZINC000004581097    0.3200
5      C5      2.5831    0.3461    1.2540 C.3      1 ZINC000004581097    0.4500
6      F6      1.5516   -0.5964    1.3235 F        1 ZINC000004581097   -0.1300
7      F7      3.8163   -0.3137    1.2230 F        1 ZINC000004581097   -0.1700
8      F8      2.5287    1.1805    2.3756 F        1 ZINC000004581097   -0.1700
9      N9      3.5426    2.1309   -0.1603 N.am     1 ZINC000004581097   -0.7100
10     C10     4.1664    1.8140   -1.3093 C.2      1 ZINC000004581097    0.7100
11     O11     5.1419    2.4022   -1.7330 O.2      1 ZINC000004581097   -0.5000
12     N12     3.5928    0.7789   -1.9335 N.am     1 ZINC000004581097   -0.5700
13     C13     4.0633    0.2203   -3.2035 C.3      1 ZINC000004581097    0.2100
14     C14     5.0714   -0.8664   -2.9316 C.2      1 ZINC000004581097   -0.0600
15     C15     4.7951   -2.1726   -2.7677 C.2      1 ZINC000004581097   -0.1700
16     C16     6.0273   -2.8259   -2.5356 C.2      1 ZINC000004581097   -0.2200
17     C17     6.9828   -1.8798   -2.5715 C.2      1 ZINC000004581097   -0.0200
18     O18     6.3986   -0.6957   -2.8175 O.3      1 ZINC000004581097   -0.1600
19     C19     2.5293    0.3131   -1.2493 C.2      1 ZINC000004581097    0.5200
20     O20     1.8089   -0.6122   -1.5568 O.2      1 ZINC000004581097   -0.3800
21     C21    -1.3040    1.9328    0.0187 C.ar     1 ZINC000004581097   -0.1300
22     C22    -1.3268    3.3285    0.0206 C.ar     1 ZINC000004581097   -0.0700
23     C23    -2.5340    3.9958    0.0295 C.ar     1 ZINC000004581097   -0.1200
24     C24    -3.7215    3.2854    0.0366 C.ar     1 ZINC000004581097   -0.0700
25     C25    -3.7078    1.9024    0.0353 C.ar     1 ZINC000004581097   -0.1200
26     C26    -2.5065    1.2210    0.0206 C.ar     1 ZINC000004581097    0.0200
27     Cl27   -2.4904   -0.5149    0.0183 Cl       1 ZINC000004581097   -0.0200
28     H28     1.1303    2.8710    0.0067 H        1 ZINC000004581097    0.4200
29     H29     3.7835    2.8432    0.4525 H        1 ZINC000004581097    0.4500
30     H30     3.2187   -0.1966   -3.7521 H        1 ZINC000004581097    0.1300
31     H31     4.5287    1.0076   -3.7965 H        1 ZINC000004581097    0.1200
32     H32     3.8193   -2.6337   -2.8056 H        1 ZINC000004581097    0.1500
33     H33     6.1733   -3.8819   -2.3624 H        1 ZINC000004581097    0.1500
34     H34     8.0408   -2.0450   -2.4305 H        1 ZINC000004581097    0.2100
35     H35    -0.4011    3.8847    0.0154 H        1 ZINC000004581097    0.1300
36     H36    -2.5524    5.0756    0.0313 H        1 ZINC000004581097    0.1400
37     H37    -4.6636    3.8135    0.0436 H        1 ZINC000004581097    0.1400
38     H38    -4.6383    1.3542    0.0412 H        1 ZINC000004581097    0.1400
@<TRIPOS>BOND
1     1     2     2
2     2     3     am
3     2     21    1
4     3     4     1
5     3     28    1
6     4     19    1
7     4     5     1
8     4     9     1
9     5     6     1
10    5     7     1
11    5     8     1
12    9     10    am
13    9     29    1
14    10    11    2
15    10    12    am
16    12    13    1
17    12    19    am
18    13    14    1
19    13    30    1
20    13    31    1
21    14    18    1
22    14    15    2
23    15    16    1
24    15    32    1
25    16    17    2
26    16    33    1
27    17    18    1
28    17    34    1
29    19    20    2
30    21    26    ar
31    21    22    ar
32    22    23    ar
33    22    35    1
34    23    24    ar
35    23    36    1
36    24    25    ar
37    24    37    1
38    25    26    ar
39    25    38    1
40    26    27    1
@<TRIPOS>SUBSTRUCTURE
1   ZINC000004581097 1     RESIDUE    1   A     ZIN   1

@<TRIPOS>MOLECULE
ZINC000004581097
37    39    1     0     0
SMALL
USER_CHARGES
@<TRIPOS>ATOM
1      O1      0.0021   -0.0041    0.0020 O.2      1 ZINC000004581097   -0.4600
2      C2     -0.0144    1.2114    0.0087 C.2      1 ZINC000004581097    0.5300
3      N3      1.1435    1.9011    0.0014 N.am     1 ZINC000004581097   -0.7000
4      C4      2.4220    1.1860   -0.0147 C.3      1 ZINC000004581097    0.2700
5      C5      2.5831    0.3461    1.2540 C.3      1 ZINC000004581097    0.4600
6      F6      1.5516   -0.5964    1.3235 F        1 ZINC000004581097   -0.1600
7      F7      3.8163   -0.3137    1.2230 F        1 ZINC000004581097   -0.1800
8      F8      2.5287    1.1805    2.3756 F        1 ZINC000004581097   -0.1800
9      N9      3.5426    2.1309   -0.1603 N.pl3    1 ZINC000004581097   -0.7000
10     C10     4.1664    1.8140   -1.3093 C.2      1 ZINC000004581097    0.6300
11     O11     5.1419    2.4022   -1.7330 O.2      1 ZINC000004581097   -0.6000
12     N12     3.5928    0.7789   -1.9335 N.am     1 ZINC000004581097   -0.5900
13     C13     4.0633    0.2203   -3.2035 C.3      1 ZINC000004581097    0.2000
14     C14     5.0714   -0.8664   -2.9316 C.2      1 ZINC000004581097   -0.0200
15     C15     4.7951   -2.1726   -2.7677 C.2      1 ZINC000004581097   -0.2000
16     C16     6.0273   -2.8259   -2.5356 C.2      1 ZINC000004581097   -0.2200
17     C17     6.9828   -1.8798   -2.5715 C.2      1 ZINC000004581097   -0.0400
18     O18     6.3986   -0.6957   -2.8175 O.3      1 ZINC000004581097   -0.1600
19     C19     2.5293    0.3131   -1.2493 C.2      1 ZINC000004581097    0.5000
20     O20     1.8089   -0.6122   -1.5568 O.2      1 ZINC000004581097   -0.4600
21     C21    -1.3040    1.9328    0.0187 C.ar     1 ZINC000004581097   -0.1200
22     C22    -1.3268    3.3285    0.0206 C.ar     1 ZINC000004581097   -0.0800
23     C23    -2.5340    3.9958    0.0295 C.ar     1 ZINC000004581097   -0.1300
24     C24    -3.7215    3.2854    0.0366 C.ar     1 ZINC000004581097   -0.0900
25     C25    -3.7078    1.9024    0.0353 C.ar     1 ZINC000004581097   -0.1200
26     C26    -2.5065    1.2210    0.0206 C.ar     1 ZINC000004581097    0.0100
27     Cl27   -2.4904   -0.5149    0.0183 Cl       1 ZINC000004581097   -0.0300
28     H28     1.1303    2.8710    0.0067 H        1 ZINC000004581097    0.4100
29     H29     3.2187   -0.1966   -3.7521 H        1 ZINC000004581097    0.1100
30     H30     4.5287    1.0076   -3.7965 H        1 ZINC000004581097    0.1000
31     H31     3.8193   -2.6337   -2.8056 H        1 ZINC000004581097    0.1500
32     H32     6.1733   -3.8819   -2.3624 H        1 ZINC000004581097    0.1500
33     H33     8.0408   -2.0450   -2.4305 H        1 ZINC000004581097    0.2000
34     H34    -0.4011    3.8847    0.0154 H        1 ZINC000004581097    0.1400
35     H35    -2.5524    5.0756    0.0313 H        1 ZINC000004581097    0.1300
36     H36    -4.6636    3.8135    0.0436 H        1 ZINC000004581097    0.1300
37     H37    -4.6383    1.3542    0.0412 H        1 ZINC000004581097    0.1400
@<TRIPOS>BOND
1     1     2     2
2     2     3     am
3     2     21    1
4     3     4     1
5     3     28    1
6     4     19    1
7     4     5     1
8     4     9     1
9     5     6     1
10    5     7     1
11    5     8     1
12    9     10    1
13    10    11    2
14    10    12    am
15    12    13    1
16    12    19    am
17    13    14    1
18    13    29    1
19    13    30    1
20    14    18    1
21    14    15    2
22    15    16    1
23    15    31    1
24    16    17    2
25    16    32    1
26    17    18    1
27    17    33    1
28    19    20    2
29    21    26    ar
30    21    22    ar
31    22    23    ar
32    22    34    1
33    23    24    ar
34    23    35    1
35    24    25    ar
36    24    36    1
37    25    26    ar
38    25    37    1
39    26    27    1
@<TRIPOS>SUBSTRUCTURE
1   ZINC000004581097 1     RESIDUE    1   A     ZIN   1
@<TRIPOS>MOLECULE
ZINC000036821960
48    50    1     0     0
SMALL
USER_CHARGES
@<TRIPOS>ATOM
1      C1     -2.1937    1.4701    0.6086 C.3      1 ZINC000036821960   -0.1700
2      C2     -2.1689   -0.0367    0.6080 C.2      1 ZINC000036821960    0.5100
3      O3     -3.0607   -0.6581    1.1462 O.2      1 ZINC000036821960   -0.5200
4      N4     -1.1558   -0.6938    0.0094 N.am     1 ZINC000036821960   -0.6800
5      C5     -1.0812   -2.0886    0.0915 C.ar     1 ZINC000036821960    0.1500
6      C6      0.1571   -2.7131    0.1777 C.ar     1 ZINC000036821960   -0.1500
7      C7      0.2332   -4.0875    0.2587 C.ar     1 ZINC000036821960   -0.0700
8      C8     -0.9336   -4.8506    0.2541 C.ar     1 ZINC000036821960   -0.0400
9      C9     -0.8545   -6.3291    0.3416 C.2      1 ZINC000036821960    0.1300
10     C10    -1.9502   -7.1092    0.3357 C.2      1 ZINC000036821960   -0.2900
11     S11    -1.4311   -8.7890    0.4549 S.3      1 ZINC000036821960    0.2100
12     C12     0.2500   -8.2665    0.5022 C.2      1 ZINC000036821960    0.2700
13     N13     1.3505   -9.1092    0.6005 N.am     1 ZINC000036821960   -0.6200
14     C14     1.1734  -10.4436    0.6686 C.2      1 ZINC000036821960    0.5300
15     O15     0.0536  -10.9088    0.6442 O.2      1 ZINC000036821960   -0.4800
16     C16     2.3669  -11.3575    0.7752 C.3      1 ZINC000036821960   -0.1300
17     S17     1.8044  -13.0806    0.8480 S.3      1 ZINC000036821960   -0.1600
18     C18     3.3563  -14.0116    0.9718 C.3      1 ZINC000036821960   -0.0200
19     C19     3.0533  -15.4861    1.0422 C.2      1 ZINC000036821960   -0.2000
20     C20     2.8312  -16.2402    2.1453 C.2      1 ZINC000036821960    0.0000
21     C21     2.8374  -15.7689    3.5767 C.3      1 ZINC000036821960   -0.0800
22     O22     2.6048  -17.4884    1.7124 O.3      1 ZINC000036821960    0.1000
23     N23     2.6659  -17.5587    0.5067 N.2      1 ZINC000036821960   -0.3600
24     C24     2.9288  -16.4014   -0.0281 C.2      1 ZINC000036821960    0.0400
25     C25     3.0802  -16.0991   -1.4967 C.3      1 ZINC000036821960   -0.0800
26     N26     0.3011   -6.9731    0.4255 N.2      1 ZINC000036821960   -0.5000
27     C27    -2.1748   -4.2216    0.1675 C.ar     1 ZINC000036821960   -0.0800
28     C28    -2.2458   -2.8466    0.0924 C.ar     1 ZINC000036821960   -0.1200
29     H29    -3.0819    1.8187    1.1355 H        1 ZINC000036821960    0.1000
30     H30    -1.3024    1.8479    1.1095 H        1 ZINC000036821960    0.0900
31     H31    -2.2147    1.8336   -0.4188 H        1 ZINC000036821960    0.0900
32     H32    -0.4784   -0.1997   -0.4784 H        1 ZINC000036821960    0.4100
33     H33     1.0606   -2.1215    0.1808 H        1 ZINC000036821960    0.1300
34     H34     1.1959   -4.5724    0.3253 H        1 ZINC000036821960    0.1400
35     H35    -2.9719   -6.7654    0.2699 H        1 ZINC000036821960    0.1800
36     H36     2.2461   -8.7372    0.6200 H        1 ZINC000036821960    0.4300
37     H37     3.0079  -11.2211   -0.0958 H        1 ZINC000036821960    0.1200
38     H38     2.9271  -11.1197    1.6795 H        1 ZINC000036821960    0.1200
39     H39     3.9726  -13.8088    0.0959 H        1 ZINC000036821960    0.1000
40     H40     3.8917  -13.7074    1.8712 H        1 ZINC000036821960    0.1000
41     H41     1.8337  -15.4512    3.8589 H        1 ZINC000036821960    0.1000
42     H42     3.1567  -16.5840    4.2262 H        1 ZINC000036821960    0.0900
43     H43     3.5265  -14.9307    3.6802 H        1 ZINC000036821960    0.0900
44     H44     2.1104  -15.8269   -1.9135 H        1 ZINC000036821960    0.0900
45     H45     3.7770  -15.2711   -1.6273 H        1 ZINC000036821960    0.0800
46     H46     3.4625  -16.9804   -2.0116 H        1 ZINC000036821960    0.0800
47     H47    -3.0800   -4.8106    0.1634 H        1 ZINC000036821960    0.1300
48     H48    -3.2071   -2.3589    0.0254 H        1 ZINC000036821960    0.1400
@<TRIPOS>BOND
1     1     2     1
2     1     29    1
3     1     30    1
4     1     31    1
5     2     3     2
6     2     4     am
7     4     5     1
8     4     32    1
9     5     28    ar
10    5     6     ar
11    6     7     ar
12    6     33    1
13    7     8     ar
14    7     34    1
15    8     9     1
16    8     27    ar
17    9     26    1
18    9     10    2
19    10    11    1
20    10    35    1
21    11    12    1
22    12    13    1
23    12    26    2
24    13    14    am
25    13    36    1
26    14    15    2
27    14    16    1
28    16    17    1
29    16    37    1
30    16    38    1
31    17    18    1
32    18    19    1
33    18    39    1
34    18    40    1
35    19    24    1
36    19    20    2
37    20    21    1
38    20    22    1
39    21    41    1
40    21    42    1
41    21    43    1
42    22    23    1
43    23    24    2
44    24    25    1
45    25    44    1
46    25    45    1
47    25    46    1
48    27    28    ar
49    27    47    1
50    28    48    1
@<TRIPOS>SUBSTRUCTURE
1   ZINC000036821960 1     RESIDUE    1   A     ZIN   1
@<TRIPOS>MOLECULE
ZINC000006624087
  53   55    0    0    0
SMALL
USER_CHARGES
NO_NAME
@<TRIPOS>ATOM
    1 C1       -0.4080     1.1903     0.2074 C.3    1 <0>      -0.0800
    2 C2       -0.2318    -0.2977     0.0463 C.2    1 <0>       0.0200
    3 C3       -1.2302    -1.1764    -0.1167 C.2    1 <0>      -0.1700
    4 C4       -2.7049    -0.8709    -0.1721 C.3    1 <0>      -0.0800
    5 C5       -0.5981    -2.4966    -0.2309 C.ar   1 <0>      -0.1500
    6 C6       -1.0814    -3.7957    -0.4118 C.ar   1 <0>       0.0200
    7 C7       -2.5651    -4.0321    -0.5300 C.3    1 <0>      -0.1200
    8 C8       -0.2194    -4.8516    -0.4825 C.ar   1 <0>      -0.1500
    9 C9        1.1547    -4.6513    -0.3747 C.ar   1 <0>       0.1800
   10 O10       2.0054    -5.6985    -0.4451 O.3    1 <0>      -0.2600
   11 C11       3.3328    -5.5330    -0.3446 C.2    1 <0>       0.5200
   12 O12       4.0596    -6.5081    -0.4146 O.2    1 <0>      -0.4600
   13 C13       3.9081    -4.2593    -0.1605 C.2    1 <0>      -0.2000
   14 C14       5.4041    -4.1130    -0.0524 C.3    1 <0>      -0.0900
   15 C15       5.8254    -4.3060     1.3816 C.2    1 <0>       0.5100
   16 O16       4.9928    -4.5394     2.2321 O.2    1 <0>      -0.5400
   17 N17       7.1273    -4.2193     1.7190 N.am   1 <0>      -0.6900
   18 C18       7.5369    -4.4069     3.1130 C.3    1 <0>       0.0800
   19 H19       6.8988    -5.1563     3.5814 H      1 <0>       0.0800
   20 C20       7.4067    -3.1017     3.8548 C.2    1 <0>       0.5000
   21 O21       7.1563    -3.1010     5.0480 O.co2  1 <0>      -0.6900
   22 O22       7.5518    -2.0463     3.2618 O.co2  1 <0>      -0.7000
   23 C23       8.9924    -4.8763     3.1582 C.3    1 <0>      -0.0900
   24 C24       9.4201    -5.0722     4.6140 C.3    1 <0>      -0.1400
   25 C25       9.1246    -6.2015     2.4050 C.3    1 <0>      -0.1400
   26 C26       3.1077    -3.1637    -0.0814 C.2    1 <0>       0.0400
   27 C27       3.6944    -1.7895     0.1147 C.3    1 <0>      -0.1300
   28 C28       1.6615    -3.3540    -0.1921 C.ar   1 <0>      -0.1300
   29 C29       0.7791    -2.2626    -0.1194 C.ar   1 <0>       0.1200
   30 O30       0.9506    -0.9375     0.0392 O.3    1 <0>      -0.1700
   31 H31       0.5685     1.6621     0.3169 H      1 <0>       0.0800
   32 H32      -0.9100     1.5940    -0.6719 H      1 <0>       0.0900
   33 H33      -1.0100     1.3910     1.0937 H      1 <0>       0.0900
   34 H34      -3.0196    -0.7861    -1.2122 H      1 <0>       0.0700
   35 H35      -3.2608    -1.6743     0.3113 H      1 <0>       0.0700
   36 H36      -2.9010     0.0686     0.3446 H      1 <0>       0.0700
   37 H37      -2.8786    -3.8653    -1.5605 H      1 <0>       0.0800
   38 H38      -2.7935    -5.0584    -0.2423 H      1 <0>       0.0700
   39 H39      -3.0962    -3.3437     0.1274 H      1 <0>       0.0800
   40 H40      -0.6058    -5.8503    -0.6228 H      1 <0>       0.1500
   41 H41       5.8886    -4.8631    -0.6775 H      1 <0>       0.1100
   42 H42       5.6969    -3.1176    -0.3863 H      1 <0>       0.1100
   43 H43       7.7932    -4.0327     1.0388 H      1 <0>       0.3900
   44 H44       9.6305    -4.1269     2.6897 H      1 <0>       0.0700
   45 H45       8.7820    -5.8216     5.0825 H      1 <0>       0.0500
   46 H46      10.4571    -5.4066     4.6462 H      1 <0>       0.0400
   47 H47       9.3260    -4.1281     5.1506 H      1 <0>       0.0700
   48 H48       8.8199    -6.0619     1.3678 H      1 <0>       0.0500
   49 H49      10.1615    -6.5358     2.4372 H      1 <0>       0.0500
   50 H50       8.4865    -6.9508     2.8734 H      1 <0>       0.0500
   51 H51       4.7730    -1.8708     0.2493 H      1 <0>       0.0900
   52 H52       3.4828    -1.1758    -0.7609 H      1 <0>       0.0800
   53 H53       3.2518    -1.3280     0.9974 H      1 <0>       0.0900
@<TRIPOS>BOND
   1    1    2 1
   2    1   31 1
   3    1   32 1
   4    1   33 1
   5    2   30 1
   6    2    3 2
   7    3    4 1
   8    3    5 1
   9    4   34 1
  10    4   35 1
  11    4   36 1
  12    5   29 ar
  13    5    6 ar
  14    6    7 1
  15    6    8 ar
  16    7   37 1
  17    7   38 1
  18    7   39 1
  19    8    9 ar
  20    8   40 1
  21    9   28 ar
  22    9   10 1
  23   10   11 1
  24   11   12 2
  25   11   13 1
  26   13   14 1
  27   13   26 2
  28   14   15 1
  29   14   41 1
  30   14   42 1
  31   15   16 2
  32   15   17 am
  33   17   18 1
  34   17   43 1
  35   18   19 1
  36   18   20 1
  37   18   23 1
  38   20   21 ar
  39   20   22 ar
  40   23   24 1
  41   23   25 1
  42   23   44 1
  43   24   45 1
  44   24   46 1
  45   24   47 1
  46   25   48 1
  47   25   49 1
  48   25   50 1
  49   26   27 1
  50   26   28 1
  51   27   51 1
  52   27   52 1
  53   27   53 1
  54   28   29 ar
  55   29   30 1
@<TRIPOS>MOLECULE
ZINC000048234418
45    47    1     0     0
SMALL
USER_CHARGES
@<TRIPOS>ATOM
1      O1      0.0021   -0.0041    0.0020 O.2      1 ZINC000048234418   -0.5200
2      C2     -0.0144    1.2086    0.0087 C.2      1 ZINC000048234418    0.5200
3      C3      1.2803    1.9798    0.0005 C.3      1 ZINC000048234418   -0.1000
4      C4      2.4389    1.0162   -0.0158 C.ar     1 ZINC000048234418   -0.0800
5      C5      2.9776    0.5637    1.1743 C.ar     1 ZINC000048234418   -0.0700
6      C6      4.0401   -0.3200    1.1606 C.ar     1 ZINC000048234418   -0.1500
7      C7      4.5647   -0.7524   -0.0456 C.ar     1 ZINC000048234418    0.1000
8      F8      5.6030   -1.6166   -0.0601 F        1 ZINC000048234418   -0.1400
9      C9      4.0240   -0.2989   -1.2368 C.ar     1 ZINC000048234418   -0.1500
10     C10     2.9585    0.5810   -1.2207 C.ar     1 ZINC000048234418   -0.0700
11     N11    -1.1906    1.8666    0.0178 N.am     1 ZINC000048234418   -0.6100
12     C12    -1.2267    3.3354    0.0199 C.3      1 ZINC000048234418    0.1000
13     C13    -2.1074    3.8085   -1.1408 C.3      1 ZINC000048234418   -0.1400
14     C14    -3.4829    3.1458   -1.0354 C.3      1 ZINC000048234418   -0.1000
15     C15    -3.3279    1.6265   -1.1348 C.3      1 ZINC000048234418   -0.1100
16     H16    -2.8510    1.3706   -2.0809 H        1 ZINC000048234418    0.1100
17     C17    -4.6858    0.9768   -1.0641 C.2      1 ZINC000048234418    0.5200
18     O18    -5.6802    1.6612   -0.9458 O.2      1 ZINC000048234418   -0.4800
19     N19    -4.7953   -0.3648   -1.1323 N.am     1 ZINC000048234418   -0.6200
20     C20    -6.0556   -0.9678   -1.0667 C.2      1 ZINC000048234418    0.4500
21     N21    -7.1989   -0.3364   -0.9453 N.2      1 ZINC000048234418   -0.2500
22     N22    -8.2028   -1.3180   -0.9194 N.pl3    1 ZINC000048234418   -0.4400
23     C23    -7.5795   -2.5034   -1.0296 C.2      1 ZINC000048234418    0.2100
24     C24    -8.2470   -3.8543   -1.0495 C.3      1 ZINC000048234418    0.5600
25     F25    -7.2894   -4.8509   -0.8326 F        1 ZINC000048234418   -0.1400
26     F26    -9.2154   -3.9108   -0.0413 F        1 ZINC000048234418   -0.1600
27     F27    -8.8560   -4.0554   -2.2928 F        1 ZINC000048234418   -0.1500
28     N28    -6.2933   -2.2816   -1.1231 N.2      1 ZINC000048234418   -0.5000
29     C29    -2.4611    1.1287    0.0199 C.3      1 ZINC000048234418    0.1200
30     H30     1.3211    2.6120   -0.8866 H        1 ZINC000048234418    0.1100
31     H31     1.3381    2.6024    0.8933 H        1 ZINC000048234418    0.1100
32     H32     2.5683    0.9012    2.1150 H        1 ZINC000048234418    0.1300
33     H33     4.4612   -0.6728    2.0904 H        1 ZINC000048234418    0.1400
34     H34     4.4326   -0.6353   -2.1782 H        1 ZINC000048234418    0.1400
35     H35     2.5363    0.9346   -2.1497 H        1 ZINC000048234418    0.1300
36     H36    -1.6436    3.6893    0.9628 H        1 ZINC000048234418    0.0800
37     H37    -0.2168    3.7259   -0.1049 H        1 ZINC000048234418    0.0900
38     H38    -2.2208    4.8916   -1.0934 H        1 ZINC000048234418    0.0900
39     H39    -1.6419    3.5321   -2.0869 H        1 ZINC000048234418    0.0700
40     H40    -3.9373    3.4027   -0.0785 H        1 ZINC000048234418    0.0800
41     H41    -4.1196    3.4998   -1.8462 H        1 ZINC000048234418    0.0800
42     H42    -4.0001   -0.9121   -1.2269 H        1 ZINC000048234418    0.4300
43     H43    -9.1580   -1.1697   -0.8379 H        1 ZINC000048234418    0.4600
44     H44    -2.2665    0.0631   -0.1024 H        1 ZINC000048234418    0.1000
45     H45    -2.9762    1.3021    0.9647 H        1 ZINC000048234418    0.0800
@<TRIPOS>BOND
1     1     2     2
2     2     3     1
3     2     11    am
4     3     4     1
5     3     30    1
6     3     31    1
7     4     10    ar
8     4     5     ar
9     5     6     ar
10    5     32    1
11    6     7     ar
12    6     33    1
13    7     8     1
14    7     9     ar
15    9     10    ar
16    9     34    1
17    10    35    1
18    11    29    1
19    11    12    1
20    12    13    1
21    12    36    1
22    12    37    1
23    13    14    1
24    13    38    1
25    13    39    1
26    14    15    1
27    14    40    1
28    14    41    1
29    15    16    1
30    15    17    1
31    15    29    1
32    17    18    2
33    17    19    am
34    19    20    1
35    19    42    1
36    20    28    1
37    20    21    2
38    21    22    1
39    22    23    1
40    22    43    1
41    23    24    1
42    23    28    2
43    24    25    1
44    24    26    1
45    24    27    1
46    29    44    1
47    29    45    1
@<TRIPOS>SUBSTRUCTURE
1   ZINC000048234418 1     RESIDUE    1   A     ZIN   1

@<TRIPOS>MOLECULE
ZINC000048234418
44    46    1     0     0
SMALL
USER_CHARGES
@<TRIPOS>ATOM
1      O1      0.0021   -0.0041    0.0020 O.2      1 ZINC000048234418   -0.5300
2      C2     -0.0144    1.2086    0.0087 C.2      1 ZINC000048234418    0.5100
3      C3      1.2803    1.9798    0.0005 C.3      1 ZINC000048234418   -0.1000
4      C4      2.4389    1.0162   -0.0158 C.ar     1 ZINC000048234418   -0.0800
5      C5      2.9776    0.5637    1.1743 C.ar     1 ZINC000048234418   -0.0700
6      C6      4.0401   -0.3200    1.1606 C.ar     1 ZINC000048234418   -0.1500
7      C7      4.5647   -0.7524   -0.0456 C.ar     1 ZINC000048234418    0.1000
8      F8      5.6030   -1.6166   -0.0601 F        1 ZINC000048234418   -0.1400
9      C9      4.0240   -0.2989   -1.2368 C.ar     1 ZINC000048234418   -0.1500
10     C10     2.9585    0.5810   -1.2207 C.ar     1 ZINC000048234418   -0.0700
11     N11    -1.1906    1.8666    0.0178 N.am     1 ZINC000048234418   -0.6100
12     C12    -1.2267    3.3354    0.0199 C.3      1 ZINC000048234418    0.1000
13     C13    -2.1074    3.8085   -1.1408 C.3      1 ZINC000048234418   -0.1300
14     C14    -3.4829    3.1458   -1.0354 C.3      1 ZINC000048234418   -0.1000
15     C15    -3.3279    1.6265   -1.1348 C.3      1 ZINC000048234418   -0.1100
16     H16    -2.8510    1.3706   -2.0809 H        1 ZINC000048234418    0.1000
17     C17    -4.6858    0.9768   -1.0641 C.2      1 ZINC000048234418    0.5100
18     O18    -5.6802    1.6612   -0.9458 O.2      1 ZINC000048234418   -0.4900
19     N19    -4.7953   -0.3648   -1.1323 N.am     1 ZINC000048234418   -0.6200
20     C20    -6.0556   -0.9678   -1.0667 C.2      1 ZINC000048234418    0.3500
21     N21    -7.1989   -0.3364   -0.9453 N.2      1 ZINC000048234418   -0.3500
22     N22    -8.2028   -1.3180   -0.9194 N.pl3    1 ZINC000048234418   -0.3700
23     C23    -7.5795   -2.5034   -1.0296 C.2      1 ZINC000048234418    0.0600
24     C24    -8.2470   -3.8543   -1.0495 C.3      1 ZINC000048234418    0.5800
25     F25    -9.6179   -3.6938   -1.2780 F        1 ZINC000048234418   -0.1700
26     F26    -7.6922   -4.6337   -2.0702 F        1 ZINC000048234418   -0.1800
27     F27    -8.0507   -4.4896    0.1814 F        1 ZINC000048234418   -0.1800
28     N28    -6.2933   -2.2816   -1.1231 N.2      1 ZINC000048234418   -0.5900
29     C29    -2.4611    1.1287    0.0199 C.3      1 ZINC000048234418    0.1200
30     H30     1.3211    2.6120   -0.8866 H        1 ZINC000048234418    0.1100
31     H31     1.3381    2.6024    0.8933 H        1 ZINC000048234418    0.1100
32     H32     2.5683    0.9012    2.1150 H        1 ZINC000048234418    0.1300
33     H33     4.4612   -0.6728    2.0904 H        1 ZINC000048234418    0.1400
34     H34     4.4326   -0.6353   -2.1782 H        1 ZINC000048234418    0.1400
35     H35     2.5363    0.9346   -2.1497 H        1 ZINC000048234418    0.1300
36     H36    -1.6436    3.6893    0.9628 H        1 ZINC000048234418    0.0700
37     H37    -0.2168    3.7259   -0.1049 H        1 ZINC000048234418    0.0900
38     H38    -2.2208    4.8916   -1.0934 H        1 ZINC000048234418    0.0800
39     H39    -1.6419    3.5321   -2.0869 H        1 ZINC000048234418    0.0700
40     H40    -3.9373    3.4027   -0.0785 H        1 ZINC000048234418    0.0800
41     H41    -4.1196    3.4998   -1.8462 H        1 ZINC000048234418    0.0800
42     H42    -4.0001   -0.9121   -1.2269 H        1 ZINC000048234418    0.4100
43     H43    -2.2665    0.0631   -0.1024 H        1 ZINC000048234418    0.1000
44     H44    -2.9762    1.3021    0.9647 H        1 ZINC000048234418    0.0800
@<TRIPOS>BOND
1     1     2     2
2     2     3     1
3     2     11    am
4     3     4     1
5     3     30    1
6     3     31    1
7     4     10    ar
8     4     5     ar
9     5     6     ar
10    5     32    1
11    6     7     ar
12    6     33    1
13    7     8     1
14    7     9     ar
15    9     10    ar
16    9     34    1
17    10    35    1
18    11    29    1
19    11    12    1
20    12    13    1
21    12    36    1
22    12    37    1
23    13    14    1
24    13    38    1
25    13    39    1
26    14    15    1
27    14    40    1
28    14    41    1
29    15    16    1
30    15    17    1
31    15    29    1
32    17    18    2
33    17    19    am
34    19    20    1
35    19    42    1
36    20    28    1
37    20    21    2
38    21    22    1
39    22    23    1
40    23    24    1
41    23    28    2
42    24    25    1
43    24    26    1
44    24    27    1
45    29    43    1
46    29    44    1
@<TRIPOS>SUBSTRUCTURE
1   ZINC000048234418 1     RESIDUE    1   A     ZIN   1

@<TRIPOS>MOLECULE
ZINC000048234418
44    46    1     0     0
SMALL
USER_CHARGES
@<TRIPOS>ATOM
1      O1      0.0021   -0.0041    0.0020 O.2      1 ZINC000048234418   -0.5300
2      C2     -0.0144    1.2086    0.0087 C.2      1 ZINC000048234418    0.5100
3      C3      1.2803    1.9798    0.0005 C.3      1 ZINC000048234418   -0.1000
4      C4      2.4389    1.0162   -0.0158 C.ar     1 ZINC000048234418   -0.0800
5      C5      2.9776    0.5637    1.1743 C.ar     1 ZINC000048234418   -0.0700
6      C6      4.0401   -0.3200    1.1606 C.ar     1 ZINC000048234418   -0.1500
7      C7      4.5647   -0.7524   -0.0456 C.ar     1 ZINC000048234418    0.1000
8      F8      5.6030   -1.6166   -0.0601 F        1 ZINC000048234418   -0.1400
9      C9      4.0240   -0.2989   -1.2368 C.ar     1 ZINC000048234418   -0.1500
10     C10     2.9585    0.5810   -1.2207 C.ar     1 ZINC000048234418   -0.0700
11     N11    -1.1906    1.8666    0.0178 N.am     1 ZINC000048234418   -0.6100
12     C12    -1.2267    3.3354    0.0199 C.3      1 ZINC000048234418    0.1000
13     C13    -2.1074    3.8085   -1.1408 C.3      1 ZINC000048234418   -0.1300
14     C14    -3.4829    3.1458   -1.0354 C.3      1 ZINC000048234418   -0.1000
15     C15    -3.3279    1.6265   -1.1348 C.3      1 ZINC000048234418   -0.1100
16     H16    -2.8510    1.3706   -2.0809 H        1 ZINC000048234418    0.1000
17     C17    -4.6858    0.9768   -1.0641 C.2      1 ZINC000048234418    0.5100
18     O18    -5.6801    1.6611   -0.9458 O.2      1 ZINC000048234418   -0.4900
19     N19    -4.7953   -0.3648   -1.1323 N.am     1 ZINC000048234418   -0.6200
20     C20    -6.0461   -0.9633   -1.0672 C.2      1 ZINC000048234418    0.3500
21     N21    -6.2898   -2.2544   -1.1165 N.2      1 ZINC000048234418   -0.6000
22     C22    -7.6025   -2.4682   -1.0263 C.2      1 ZINC000048234418    0.0500
23     C23    -8.2716   -3.8184   -1.0459 C.3      1 ZINC000048234418    0.5700
24     F24    -8.6854   -4.1526    0.2481 F        1 ZINC000048234418   -0.1800
25     F25    -9.3831   -3.7758   -1.8945 F        1 ZINC000048234418   -0.1800
26     F26    -7.3676   -4.7802   -1.5095 F        1 ZINC000048234418   -0.1800
27     N27    -8.2161   -1.3200   -0.9182 N.2      1 ZINC000048234418   -0.3500
28     N28    -7.2269   -0.3235   -0.9362 N.pl3    1 ZINC000048234418   -0.3700
29     C29    -2.4611    1.1287    0.0199 C.3      1 ZINC000048234418    0.1200
30     H30     1.3211    2.6120   -0.8866 H        1 ZINC000048234418    0.1100
31     H31     1.3381    2.6024    0.8933 H        1 ZINC000048234418    0.1100
32     H32     2.5683    0.9012    2.1150 H        1 ZINC000048234418    0.1300
33     H33     4.4612   -0.6728    2.0904 H        1 ZINC000048234418    0.1400
34     H34     4.4326   -0.6353   -2.1782 H        1 ZINC000048234418    0.1400
35     H35     2.5363    0.9346   -2.1497 H        1 ZINC000048234418    0.1300
36     H36    -1.6436    3.6893    0.9628 H        1 ZINC000048234418    0.0700
37     H37    -0.2168    3.7259   -0.1049 H        1 ZINC000048234418    0.0900
38     H38    -2.2208    4.8916   -1.0934 H        1 ZINC000048234418    0.0800
39     H39    -1.6419    3.5321   -2.0869 H        1 ZINC000048234418    0.0700
40     H40    -3.9373    3.4027   -0.0785 H        1 ZINC000048234418    0.0800
41     H41    -4.1196    3.4998   -1.8462 H        1 ZINC000048234418    0.0800
42     H42    -4.0001   -0.9121   -1.2269 H        1 ZINC000048234418    0.4100
43     H43    -2.2665    0.0631   -0.1024 H        1 ZINC000048234418    0.1000
44     H44    -2.9762    1.3021    0.9647 H        1 ZINC000048234418    0.0800
@<TRIPOS>BOND
1     1     2     2
2     2     3     1
3     2     11    am
4     3     4     1
5     3     30    1
6     3     31    1
7     4     10    ar
8     4     5     ar
9     5     6     ar
10    5     32    1
11    6     7     ar
12    6     33    1
13    7     8     1
14    7     9     ar
15    9     10    ar
16    9     34    1
17    10    35    1
18    11    29    1
19    11    12    1
20    12    13    1
21    12    36    1
22    12    37    1
23    13    14    1
24    13    38    1
25    13    39    1
26    14    15    1
27    14    40    1
28    14    41    1
29    15    16    1
30    15    17    1
31    15    29    1
32    17    18    2
33    17    19    am
34    19    20    1
35    19    42    1
36    20    28    1
37    20    21    2
38    21    22    1
39    22    23    1
40    22    27    2
41    23    24    1
42    23    25    1
43    23    26    1
44    27    28    1
45    29    43    1
46    29    44    1
@<TRIPOS>SUBSTRUCTURE
1   ZINC000048234418 1     RESIDUE    1   A     ZIN   1

@<TRIPOS>MOLECULE
ZINC000048234418
44    46    1     0     0
SMALL
USER_CHARGES
@<TRIPOS>ATOM
1      O1      0.0021   -0.0041    0.0020 O.2      1 ZINC000048234418   -0.5300
2      C2     -0.0144    1.2086    0.0087 C.2      1 ZINC000048234418    0.5100
3      C3      1.2803    1.9798    0.0005 C.3      1 ZINC000048234418   -0.1000
4      C4      2.4389    1.0162   -0.0158 C.ar     1 ZINC000048234418   -0.0800
5      C5      2.9776    0.5637    1.1743 C.ar     1 ZINC000048234418   -0.0700
6      C6      4.0401   -0.3200    1.1606 C.ar     1 ZINC000048234418   -0.1500
7      C7      4.5647   -0.7524   -0.0456 C.ar     1 ZINC000048234418    0.1000
8      F8      5.6030   -1.6166   -0.0601 F        1 ZINC000048234418   -0.1400
9      C9      4.0240   -0.2989   -1.2368 C.ar     1 ZINC000048234418   -0.1500
10     C10     2.9585    0.5810   -1.2207 C.ar     1 ZINC000048234418   -0.0700
11     N11    -1.1906    1.8666    0.0178 N.am     1 ZINC000048234418   -0.6100
12     C12    -1.2267    3.3354    0.0199 C.3      1 ZINC000048234418    0.1000
13     C13    -2.1074    3.8085   -1.1408 C.3      1 ZINC000048234418   -0.1300
14     C14    -3.4829    3.1458   -1.0354 C.3      1 ZINC000048234418   -0.1000
15     C15    -3.3279    1.6265   -1.1348 C.3      1 ZINC000048234418   -0.1100
16     H16    -2.8510    1.3706   -2.0809 H        1 ZINC000048234418    0.1000
17     C17    -4.6858    0.9768   -1.0641 C.2      1 ZINC000048234418    0.5100
18     O18    -5.6801    1.6611   -0.9458 O.2      1 ZINC000048234418   -0.4900
19     N19    -4.7953   -0.3648   -1.1323 N.am     1 ZINC000048234418   -0.6200
20     C20    -6.0477   -0.9640   -1.0671 C.2      1 ZINC000048234418    0.3000
21     N21    -7.2002   -0.3500   -0.9460 N.2      1 ZINC000048234418   -0.3300
22     N22    -8.1529   -1.2123   -0.9177 N.2      1 ZINC000048234418   -0.3100
23     C23    -7.6670   -2.4178   -1.0184 C.2      1 ZINC000048234418   -0.0100
24     C24    -8.4566   -3.7014   -1.0247 C.3      1 ZINC000048234418    0.5800
25     F25    -9.8080   -3.4165   -1.2478 F        1 ZINC000048234418   -0.1800
26     F26    -7.9817   -4.5360   -2.0421 F        1 ZINC000048234418   -0.1800
27     F27    -8.3130   -4.3433    0.2100 F        1 ZINC000048234418   -0.1800
28     N28    -6.3104   -2.3017   -1.1229 N.pl3    1 ZINC000048234418   -0.5700
29     C29    -2.4611    1.1287    0.0199 C.3      1 ZINC000048234418    0.1200
30     H30     1.3211    2.6120   -0.8866 H        1 ZINC000048234418    0.1100
31     H31     1.3381    2.6024    0.8933 H        1 ZINC000048234418    0.1100
32     H32     2.5683    0.9012    2.1150 H        1 ZINC000048234418    0.1300
33     H33     4.4612   -0.6728    2.0904 H        1 ZINC000048234418    0.1400
34     H34     4.4326   -0.6353   -2.1782 H        1 ZINC000048234418    0.1400
35     H35     2.5363    0.9346   -2.1497 H        1 ZINC000048234418    0.1300
36     H36    -1.6436    3.6893    0.9628 H        1 ZINC000048234418    0.0700
37     H37    -0.2168    3.7259   -0.1049 H        1 ZINC000048234418    0.0900
38     H38    -2.2208    4.8916   -1.0934 H        1 ZINC000048234418    0.0800
39     H39    -1.6419    3.5321   -2.0869 H        1 ZINC000048234418    0.0700
40     H40    -3.9373    3.4027   -0.0785 H        1 ZINC000048234418    0.0800
41     H41    -4.1196    3.4998   -1.8462 H        1 ZINC000048234418    0.0800
42     H42    -4.0001   -0.9121   -1.2269 H        1 ZINC000048234418    0.4100
43     H43    -2.2665    0.0631   -0.1024 H        1 ZINC000048234418    0.1000
44     H44    -2.9762    1.3021    0.9647 H        1 ZINC000048234418    0.0800
@<TRIPOS>BOND
1     1     2     2
2     2     3     1
3     2     11    am
4     3     4     1
5     3     30    1
6     3     31    1
7     4     10    ar
8     4     5     ar
9     5     6     ar
10    5     32    1
11    6     7     ar
12    6     33    1
13    7     8     1
14    7     9     ar
15    9     10    ar
16    9     34    1
17    10    35    1
18    11    29    1
19    11    12    1
20    12    13    1
21    12    36    1
22    12    37    1
23    13    14    1
24    13    38    1
25    13    39    1
26    14    15    1
27    14    40    1
28    14    41    1
29    15    16    1
30    15    17    1
31    15    29    1
32    17    18    2
33    17    19    am
34    19    20    1
35    19    42    1
36    20    28    1
37    20    21    2
38    21    22    1
39    22    23    2
40    23    24    1
41    23    28    1
42    24    25    1
43    24    26    1
44    24    27    1
45    29    43    1
46    29    44    1
@<TRIPOS>SUBSTRUCTURE
1   ZINC000048234418 1     RESIDUE    1   A     ZIN   1
@<TRIPOS>MOLECULE
ZINC000058161433
48    50    1     0     0
SMALL
USER_CHARGES
@<TRIPOS>ATOM
1      C1      0.0187  -10.7175    2.9623 C.3      1 ZINC000058161433   -0.1300
2      C2      0.0376   -9.3830    2.2624 C.ar     1 ZINC000058161433   -0.0600
3      C3     -0.1581   -8.2212    2.9843 C.ar     1 ZINC000058161433   -0.1100
4      C4     -0.1408   -6.9967    2.3425 C.ar     1 ZINC000058161433   -0.0200
5      C5      0.0716   -6.9332    0.9781 C.ar     1 ZINC000058161433   -0.6600
6      S6      0.0927   -5.3719    0.1618 S.o2     1 ZINC000058161433    2.6900
7      O7     -0.3489   -5.6083   -1.1680 O.2      1 ZINC000058161433   -0.9400
8      O8     -0.5417   -4.4517    1.0393 O.2      1 ZINC000058161433   -0.9400
9      N9      1.6755   -4.8977    0.0516 N.am     1 ZINC000058161433   -1.0600
10     C10     2.4016   -4.6125    1.2106 C.ar     1 ZINC000058161433    0.1200
11     C11     2.1706   -3.4292    1.9020 C.ar     1 ZINC000058161433   -0.0700
12     C12     2.8866   -3.1425    3.0493 C.ar     1 ZINC000058161433   -0.1100
13     C13     3.8357   -4.0290    3.5155 C.ar     1 ZINC000058161433   -0.0800
14     C14     4.0758   -5.2202    2.8282 C.ar     1 ZINC000058161433   -0.1300
15     C15     5.0926   -6.1716    3.3254 C.2      1 ZINC000058161433    0.5600
16     O16     5.3001   -7.2081    2.7254 O.2      1 ZINC000058161433   -0.5200
17     N17     5.7895   -5.8894    4.4440 N.am     1 ZINC000058161433   -0.7200
18     C18     6.7970   -6.8319    4.9367 C.3      1 ZINC000058161433    0.1300
19     H19     6.4951   -7.8606    4.7401 H        1 ZINC000058161433    0.1200
20     C20     8.1827   -6.5342    4.3183 C.3      1 ZINC000058161433   -0.1700
21     C21     8.8504   -5.6238    5.3252 C.2      1 ZINC000058161433    0.5200
22     O22     9.8266   -4.9393    5.1026 O.2      1 ZINC000058161433   -0.5300
23     N23     8.2041   -5.6834    6.5023 N.am     1 ZINC000058161433   -0.6300
24     C24     8.5831   -4.9187    7.6930 C.3      1 ZINC000058161433    0.0900
25     C25     7.0693   -6.6136    6.4415 C.3      1 ZINC000058161433    0.1000
26     C26     3.3490   -5.5128    1.6745 C.ar     1 ZINC000058161433   -0.0500
27     C27     0.2680   -8.0941    0.2540 C.ar     1 ZINC000058161433   -0.0500
28     C28     0.2566   -9.3203    0.8965 C.ar     1 ZINC000058161433    0.0800
29     F29     0.4485  -10.4556    0.1898 F        1 ZINC000058161433   -0.1300
30     H30     1.0257  -10.9668    3.2966 H        1 ZINC000058161433    0.0900
31     H31    -0.6479  -10.6669    3.8233 H        1 ZINC000058161433    0.0800
32     H32    -0.3356  -11.4842    2.2732 H        1 ZINC000058161433    0.0800
33     H33    -0.3249   -8.2696    4.0503 H        1 ZINC000058161433    0.1400
34     H34    -0.2938   -6.0891    2.9075 H        1 ZINC000058161433    0.1500
35     H35     2.0985   -4.8179   -0.8177 H        1 ZINC000058161433    0.4300
36     H36     1.4295   -2.7312    1.5415 H        1 ZINC000058161433    0.1400
37     H37     2.7027   -2.2214    3.5823 H        1 ZINC000058161433    0.1400
38     H38     4.3931   -3.8011    4.4120 H        1 ZINC000058161433    0.1300
39     H39     5.6240   -5.0622    4.9228 H        1 ZINC000058161433    0.4000
40     H40     8.7533   -7.4553    4.1995 H        1 ZINC000058161433    0.1200
41     H41     8.0717   -6.0268    3.3600 H        1 ZINC000058161433    0.1100
42     H42     9.4575   -4.3075    7.4693 H        1 ZINC000058161433    0.0800
43     H43     7.7555   -4.2742    7.9895 H        1 ZINC000058161433    0.0600
44     H44     8.8182   -5.6054    8.5062 H        1 ZINC000058161433    0.0600
45     H45     6.1956   -6.1747    6.9235 H        1 ZINC000058161433    0.0900
46     H46     7.3298   -7.5581    6.9192 H        1 ZINC000058161433    0.0900
47     H47     3.5304   -6.4327    1.1385 H        1 ZINC000058161433    0.1400
48     H48     0.4340   -8.0442   -0.8120 H        1 ZINC000058161433    0.1500
@<TRIPOS>BOND
1     1     2     1
2     1     30    1
3     1     31    1
4     1     32    1
5     2     28    ar
6     2     3     ar
7     3     4     ar
8     3     33    1
9     4     5     ar
10    4     34    1
11    5     6     1
12    5     27    ar
13    6     7     2
14    6     8     2
15    6     9     am
16    9     10    1
17    9     35    1
18    10    26    ar
19    10    11    ar
20    11    12    ar
21    11    36    1
22    12    13    ar
23    12    37    1
24    13    14    ar
25    13    38    1
26    14    15    1
27    14    26    ar
28    15    16    2
29    15    17    am
30    17    18    1
31    17    39    1
32    18    19    1
33    18    25    1
34    18    20    1
35    20    21    1
36    20    40    1
37    20    41    1
38    21    22    2
39    21    23    am
40    23    24    1
41    23    25    1
42    24    42    1
43    24    43    1
44    24    44    1
45    25    45    1
46    25    46    1
47    26    47    1
48    27    28    ar
49    27    48    1
50    28    29    1
@<TRIPOS>SUBSTRUCTURE
1   ZINC000058161433 1     RESIDUE    1   A     ZIN   1

@<TRIPOS>MOLECULE
ZINC000058161433
47    49    1     0     0
SMALL
USER_CHARGES
@<TRIPOS>ATOM
1      C1     -0.0184    1.5028    0.0103 C.3      1 ZINC000058161433   -0.1200
2      C2      0.0021   -0.0041    0.0020 C.ar     1 ZINC000058161433   -0.0800
3      C3      0.0057   -0.6886   -1.1982 C.ar     1 ZINC000058161433   -0.1200
4      C4      0.0244   -2.0711   -1.2062 C.ar     1 ZINC000058161433   -0.0300
5      C5      0.0390   -2.7700   -0.0137 C.ar     1 ZINC000058161433   -0.5900
6      S6      0.0623   -4.5319   -0.0258 S.o2     1 ZINC000058161433    2.6000
7      O7     -0.4711   -4.9487    1.2236 O.2      1 ZINC000058161433   -1.0200
8      O8     -0.4825   -4.9318   -1.2758 O.2      1 ZINC000058161433   -1.0200
9      N9      1.6504   -5.0011   -0.0363 N.pl3    1 ZINC000058161433   -1.0900
10     C10     1.9774   -6.3593   -0.0470 C.ar     1 ZINC000058161433    0.2700
11     C11     0.9699   -7.3167   -0.0546 C.ar     1 ZINC000058161433   -0.2400
12     C12     1.2885   -8.6619   -0.0652 C.ar     1 ZINC000058161433   -0.0700
13     C13     2.6087   -9.0632   -0.0678 C.ar     1 ZINC000058161433   -0.1900
14     C14     3.6283   -8.1095   -0.0597 C.ar     1 ZINC000058161433   -0.1100
15     C15     5.0438   -8.5369   -0.0620 C.2      1 ZINC000058161433    0.5700
16     O16     5.9299   -7.7049   -0.0550 O.2      1 ZINC000058161433   -0.5400
17     N17     5.3515   -9.8490   -0.0718 N.am     1 ZINC000058161433   -0.7300
18     C18     6.7539  -10.2725   -0.0741 C.3      1 ZINC000058161433    0.1400
19     H19     7.3691   -9.5748   -0.6423 H        1 ZINC000058161433    0.1200
20     C20     7.2864  -10.4313    1.3689 C.3      1 ZINC000058161433   -0.1700
21     C21     7.0668  -11.8940    1.6866 C.2      1 ZINC000058161433    0.5200
22     O22     7.0868  -12.3735    2.8003 O.2      1 ZINC000058161433   -0.5300
23     N23     6.8457  -12.5847    0.5548 N.am     1 ZINC000058161433   -0.6300
24     C24     6.5871  -14.0257    0.5030 C.3      1 ZINC000058161433    0.0900
25     C25     6.8967  -11.7093   -0.6233 C.3      1 ZINC000058161433    0.1000
26     C26     3.3073   -6.7524   -0.0557 C.ar     1 ZINC000058161433   -0.1100
27     C27     0.0359   -2.0874    1.1881 C.ar     1 ZINC000058161433   -0.0500
28     C28     0.0229   -0.7031    1.1973 C.ar     1 ZINC000058161433    0.0700
29     F29     0.0198   -0.0348    2.3714 F        1 ZINC000058161433   -0.1400
30     H30     1.0042    1.8801    0.0026 H        1 ZINC000058161433    0.0800
31     H31    -0.5455    1.8639   -0.8728 H        1 ZINC000058161433    0.0700
32     H32    -0.5286    1.8543    0.9071 H        1 ZINC000058161433    0.0700
33     H33    -0.0064   -0.1436   -2.1305 H        1 ZINC000058161433    0.1400
34     H34     0.0273   -2.6054   -2.1448 H        1 ZINC000058161433    0.1400
35     H35    -0.0652   -7.0087   -0.0519 H        1 ZINC000058161433    0.1000
36     H36     0.5013   -9.4013   -0.0710 H        1 ZINC000058161433    0.1100
37     H37     2.8533  -10.1151   -0.0757 H        1 ZINC000058161433    0.1000
38     H38     4.6444  -10.5130   -0.0774 H        1 ZINC000058161433    0.4000
39     H39     8.3476  -10.1865    1.4131 H        1 ZINC000058161433    0.1100
40     H40     6.7199   -9.8025    2.0559 H        1 ZINC000058161433    0.1100
41     H41     6.6041  -14.4345    1.5134 H        1 ZINC000058161433    0.0800
42     H42     5.6092  -14.2035    0.0556 H        1 ZINC000058161433    0.0600
43     H43     7.3555  -14.5114   -0.0984 H        1 ZINC000058161433    0.0600
44     H44     6.0731  -11.9386   -1.2995 H        1 ZINC000058161433    0.0900
45     H45     7.8510  -11.8240   -1.1375 H        1 ZINC000058161433    0.0900
46     H46     4.0917   -6.0100   -0.0495 H        1 ZINC000058161433    0.1300
47     H47     0.0473   -2.6337    2.1197 H        1 ZINC000058161433    0.1500
@<TRIPOS>BOND
1     1     2     1
2     1     30    1
3     1     31    1
4     1     32    1
5     2     28    ar
6     2     3     ar
7     3     4     ar
8     3     33    1
9     4     5     ar
10    4     34    1
11    5     6     1
12    5     27    ar
13    6     7     2
14    6     8     2
15    6     9     1
16    9     10    1
17    10    26    ar
18    10    11    ar
19    11    12    ar
20    11    35    1
21    12    13    ar
22    12    36    1
23    13    14    ar
24    13    37    1
25    14    15    1
26    14    26    ar
27    15    16    2
28    15    17    am
29    17    18    1
30    17    38    1
31    18    19    1
32    18    25    1
33    18    20    1
34    20    21    1
35    20    39    1
36    20    40    1
37    21    22    2
38    21    23    am
39    23    24    1
40    23    25    1
41    24    41    1
42    24    42    1
43    24    43    1
44    25    44    1
45    25    45    1
46    26    46    1
47    27    28    ar
48    27    47    1
49    28    29    1
@<TRIPOS>SUBSTRUCTURE
1   ZINC000058161433 1     RESIDUE    1   A     ZIN   1
@<TRIPOS>MOLECULE
ZINC000012858350
  50   53    0    0    0
SMALL
NO_CHARGES
@<TRIPOS>ATOM
   1 O1             1.0889     1.9336    -0.8509 O.2     
   2 C2             0.0526     1.6864    -1.4381 C.2     
   3 C3             0.0585     0.7641    -2.5838 C.2     
   4 C4             0.9285     0.9672    -3.6530 C.2     
   5 C5             0.9057     0.0712    -4.7217 C.2     
   6 C6             0.0458    -0.9793    -4.7121 C.2     
   7 C7             0.0355    -1.9370    -5.8755 C.3     
   8 F8             0.9859    -1.5341    -6.8197 F       
   9 F9             0.3445    -3.2241    -5.4228 F       
  10 F10           -1.2336    -1.9419    -6.4642 F       
  11 N11           -0.8025    -1.1828    -3.6762 N.am    
  12 C12           -0.8176    -0.3516    -2.6169 C.2     
  13 O13           -1.5884    -0.5512    -1.6941 O.2     
  14 N14           -1.1018     2.2535    -1.0354 N.am    
  15 C15           -1.0844     3.3073    -0.0179 C.3     
  16 C16           -0.7432     4.6248    -0.6651 C.ar    
  17 C17            0.5711     5.0502    -0.7156 C.ar    
  18 C18            0.8842     6.2587    -1.3092 C.ar    
  19 C19           -0.1170     7.0416    -1.8528 C.ar    
  20 C20           -1.4312     6.6159    -1.8031 C.ar    
  21 C21           -1.7438     5.4054    -1.2132 C.ar    
  22 C22           -2.3741     1.8160    -1.6152 C.3     
  23 C23           -3.4174     1.7311    -0.5310 C.2     
  24 N24           -3.0719     2.0408     0.6817 N.2     
  25 C25           -3.9569     1.9884     1.7086 C.ar    
  26 C26           -3.5864     2.3217     3.0126 C.ar    
  27 C27           -4.5180     2.2547     4.0245 C.ar    
  28 C28           -5.8233     1.8593     3.7646 C.ar    
  29 C29           -6.2129     1.5250     2.4858 C.ar    
  30 C30           -5.2859     1.5866     1.4478 C.ar    
  31 C31           -5.6437     1.2414     0.0638 C.2     
  32 O32           -6.7710     0.8870    -0.2282 O.2     
  33 N33           -4.6725     1.3397    -0.8736 N.am    
  34 H34            1.6095     1.8054    -3.6545 H       
  35 H35            1.5733     0.2136    -5.5586 H       
  36 H36           -1.4065    -1.9416    -3.6960 H       
  37 H37           -2.0662     3.3762     0.4507 H       
  38 H38           -0.3366     3.0697     0.7386 H       
  39 H39            1.3534     4.4385    -0.2910 H       
  40 H40            1.9110     6.5913    -1.3481 H       
  41 H41            0.1275     7.9861    -2.3159 H       
  42 H42           -2.2135     7.2277    -2.2274 H       
  43 H43           -2.7705     5.0727    -1.1744 H       
  44 H44           -2.6940     2.5323    -2.3719 H       
  45 H45           -2.2463     0.8355    -2.0739 H       
  46 H46           -2.5738     2.6303     3.2269 H       
  47 H47           -4.2296     2.5125     5.0328 H       
  48 H48           -6.5394     1.8130     4.5717 H       
  49 H49           -7.2295     1.2178     2.2896 H       
  50 H50           -4.8721     1.1205    -1.7972 H       
@<TRIPOS>BOND
   1    1    2 2
   2    2    3 1
   3    2   14 am
   4    3   12 1
   5    3    4 2
   6    4    5 1
   7    4   34 1
   8    5    6 2
   9    5   35 1
  10    6    7 1
  11    6   11 1
  12    7    8 1
  13    7    9 1
  14    7   10 1
  15   11   12 am
  16   11   36 1
  17   12   13 2
  18   14   15 1
  19   14   22 1
  20   15   16 1
  21   15   37 1
  22   15   38 1
  23   16   21 ar
  24   16   17 ar
  25   17   18 ar
  26   17   39 1
  27   18   19 ar
  28   18   40 1
  29   19   20 ar
  30   19   41 1
  31   20   21 ar
  32   20   42 1
  33   21   43 1
  34   22   23 1
  35   22   44 1
  36   22   45 1
  37   23   33 1
  38   23   24 2
  39   24   25 1
  40   25   30 ar
  41   25   26 ar
  42   26   27 ar
  43   26   46 1
  44   27   28 ar
  45   27   47 1
  46   28   29 ar
  47   28   48 1
  48   29   30 ar
  49   29   49 1
  50   30   31 1
  51   31   32 2
  52   31   33 am
  53   33   50 1
@<TRIPOS>MOLECULE
ZINC000000691977
49    51    1     0     0
SMALL
USER_CHARGES
@<TRIPOS>ATOM
1      C1      0.0265  -10.6551    3.0832 C.3      1 ZINC000000691977   -0.1300
2      C2      0.0436   -9.3361    2.3546 C.ar     1 ZINC000000691977   -0.0200
3      C3     -0.1609   -8.1593    3.0505 C.ar     1 ZINC000000691977   -0.1400
4      C4     -0.1452   -6.9494    2.3822 C.ar     1 ZINC000000691977   -0.0100
5      C5      0.0756   -6.9161    1.0180 C.ar     1 ZINC000000691977   -0.6800
6      S6      0.0951   -5.3739    0.1660 S.o2     1 ZINC000000691977    2.6900
7      O7     -0.3380   -5.6428   -1.1604 O.2      1 ZINC000000691977   -0.9500
8      O8     -0.5479   -4.4364    1.0186 O.2      1 ZINC000000691977   -0.9400
9      N9      1.6766   -4.8959    0.0537 N.am     1 ZINC000000691977   -1.0700
10     C10     2.4035   -4.6093    1.2115 C.ar     1 ZINC000000691977    0.1800
11     C11     2.1742   -3.4261    1.9023 C.ar     1 ZINC000000691977   -0.1300
12     C12     2.8943   -3.1460    3.0470 C.ar     1 ZINC000000691977   -0.0100
13     C13     3.8430   -4.0416    3.5054 C.ar     1 ZINC000000691977   -0.6700
14     S14     4.7595   -3.6802    4.9662 S.o2     1 ZINC000000691977    2.7000
15     O15     5.9633   -4.4303    4.8805 O.2      1 ZINC000000691977   -0.9500
16     O16     4.7331   -2.2675    5.1174 O.2      1 ZINC000000691977   -0.9500
17     N17     3.9104   -4.3032    6.2443 N.am     1 ZINC000000691977   -1.1100
18     C18     3.7236   -5.7513    6.3634 C.3      1 ZINC000000691977    0.1200
19     C19     3.2519   -6.0899    7.7790 C.3      1 ZINC000000691977    0.0700
20     H20     2.3131   -5.5804    7.9962 H        1 ZINC000000691977    0.0800
21     C21     3.0815   -7.6218    7.9370 C.3      1 ZINC000000691977   -0.1500
22     C22     3.2546   -7.7808    9.4722 C.3      1 ZINC000000691977   -0.1600
23     C23     4.2915   -6.6851    9.8002 C.3      1 ZINC000000691977    0.0500
24     O24     4.2536   -5.7207    8.7400 O.3      1 ZINC000000691977   -0.3700
25     C25     4.0738   -5.2203    2.8201 C.ar     1 ZINC000000691977   -0.0100
26     C26     3.3532   -5.5093    1.6779 C.ar     1 ZINC000000691977   -0.1300
27     C27     0.2815   -8.0928    0.3223 C.ar     1 ZINC000000691977   -0.0100
28     C28     0.2696   -9.3024    0.9913 C.ar     1 ZINC000000691977   -0.1400
29     H29     1.0327  -10.8927    3.4283 H        1 ZINC000000691977    0.0800
30     H30    -0.6450  -10.5886    3.9393 H        1 ZINC000000691977    0.0700
31     H31    -0.3208  -11.4381    2.4091 H        1 ZINC000000691977    0.0700
32     H32    -0.3334   -8.1853    4.1164 H        1 ZINC000000691977    0.1300
33     H33    -0.3057   -6.0301    2.9258 H        1 ZINC000000691977    0.1400
34     H34     2.0983   -4.8150   -0.8161 H        1 ZINC000000691977    0.4300
35     H35     1.4339   -2.7259    1.5444 H        1 ZINC000000691977    0.1500
36     H36     2.7165   -2.2263    3.5845 H        1 ZINC000000691977    0.1500
37     H37     3.5367   -3.7092    6.9139 H        1 ZINC000000691977    0.4200
38     H38     2.9758   -6.0818    5.6425 H        1 ZINC000000691977    0.0800
39     H39     4.6684   -6.2571    6.1646 H        1 ZINC000000691977    0.0900
40     H40     2.0894   -7.9417    7.6183 H        1 ZINC000000691977    0.0900
41     H41     3.8588   -8.1614    7.3961 H        1 ZINC000000691977    0.0800
42     H42     2.3142   -7.5925    9.9902 H        1 ZINC000000691977    0.0800
43     H43     3.6433   -8.7690    9.7185 H        1 ZINC000000691977    0.0900
44     H44     4.0356   -6.2047   10.7446 H        1 ZINC000000691977    0.0700
45     H45     5.2865   -7.1253    9.8657 H        1 ZINC000000691977    0.0700
46     H46     4.8155   -5.9176    3.1808 H        1 ZINC000000691977    0.1500
47     H47     3.5337   -6.4302    1.1434 H        1 ZINC000000691977    0.1400
48     H48     0.4544   -8.0668   -0.7435 H        1 ZINC000000691977    0.1400
49     H49     0.4305  -10.2217    0.4477 H        1 ZINC000000691977    0.1300
@<TRIPOS>BOND
1     1     2     1
2     1     29    1
3     1     30    1
4     1     31    1
5     2     28    ar
6     2     3     ar
7     3     4     ar
8     3     32    1
9     4     5     ar
10    4     33    1
11    5     6     1
12    5     27    ar
13    6     7     2
14    6     8     2
15    6     9     am
16    9     10    1
17    9     34    1
18    10    26    ar
19    10    11    ar
20    11    12    ar
21    11    35    1
22    12    13    ar
23    12    36    1
24    13    14    1
25    13    25    ar
26    14    15    2
27    14    16    2
28    14    17    am
29    17    18    1
30    17    37    1
31    18    19    1
32    18    38    1
33    18    39    1
34    19    20    1
35    19    24    1
36    19    21    1
37    21    22    1
38    21    40    1
39    21    41    1
40    22    23    1
41    22    42    1
42    22    43    1
43    23    24    1
44    23    44    1
45    23    45    1
46    25    26    ar
47    25    46    1
48    26    47    1
49    27    28    ar
50    27    48    1
51    28    49    1
@<TRIPOS>SUBSTRUCTURE
1   ZINC000000691977 1     RESIDUE    1   A     ZIN   1

@<TRIPOS>MOLECULE
ZINC000000691977
48    50    1     0     0
SMALL
USER_CHARGES
@<TRIPOS>ATOM
1      C1     -0.0184    1.5028    0.0103 C.3      1 ZINC000000691977   -0.1200
2      C2      0.0021   -0.0041    0.0020 C.ar     1 ZINC000000691977   -0.0500
3      C3      0.0057   -0.6887   -1.1989 C.ar     1 ZINC000000691977   -0.1500
4      C4      0.0245   -2.0709   -1.2065 C.ar     1 ZINC000000691977   -0.0200
5      C5      0.0400   -2.7685   -0.0132 C.ar     1 ZINC000000691977   -0.6200
6      S6      0.0633   -4.5303   -0.0229 S.o2     1 ZINC000000691977    2.6100
7      O7     -0.4690   -4.9455    1.2275 O.2      1 ZINC000000691977   -1.0200
8      O8     -0.4824   -4.9319   -1.2719 O.2      1 ZINC000000691977   -1.0200
9      N9      1.6514   -4.9995   -0.0340 N.pl3    1 ZINC000000691977   -1.0800
10     C10     1.9784   -6.3573   -0.0431 C.ar     1 ZINC000000691977    0.3300
11     C11     0.9727   -7.3155   -0.0487 C.ar     1 ZINC000000691977   -0.2800
12     C12     1.2996   -8.6573   -0.0582 C.ar     1 ZINC000000691977    0.0300
13     C13     2.6262   -9.0474   -0.0617 C.ar     1 ZINC000000691977   -0.7700
14     S14     3.0387  -10.7604   -0.0738 S.o2     1 ZINC000000691977    2.7000
15     O15     4.3480  -10.8617    0.4692 O.2      1 ZINC000000691977   -0.9800
16     O16     1.9180  -11.4468    0.4665 O.2      1 ZINC000000691977   -0.9800
17     N17     3.1526  -11.2260   -1.6589 N.am     1 ZINC000000691977   -1.1200
18     C18     4.2009  -10.6637   -2.5140 C.3      1 ZINC000000691977    0.1200
19     C19     4.3300  -11.5070   -3.7841 C.3      1 ZINC000000691977    0.0700
20     H20     3.3841  -11.5215   -4.3256 H        1 ZINC000000691977    0.0800
21     C21     5.4585  -10.9493   -4.6876 C.3      1 ZINC000000691977   -0.1500
22     C22     5.8446  -12.2189   -5.4944 C.3      1 ZINC000000691977   -0.1600
23     C23     5.6320  -13.3431   -4.4579 C.3      1 ZINC000000691977    0.0500
24     O24     4.7366  -12.8448   -3.4551 O.3      1 ZINC000000691977   -0.3700
25     C25     3.6299   -8.0961   -0.0561 C.ar     1 ZINC000000691977    0.0100
26     C26     3.3101   -6.7526   -0.0524 C.ar     1 ZINC000000691977   -0.2000
27     C27     0.0378   -2.0839    1.1877 C.ar     1 ZINC000000691977   -0.0200
28     C28     0.0229   -0.7016    1.1953 C.ar     1 ZINC000000691977   -0.1500
29     H29     1.0042    1.8801    0.0026 H        1 ZINC000000691977    0.0700
30     H30    -0.5455    1.8639   -0.8728 H        1 ZINC000000691977    0.0700
31     H31    -0.5286    1.8543    0.9071 H        1 ZINC000000691977    0.0700
32     H32    -0.0064   -0.1436   -2.1312 H        1 ZINC000000691977    0.1300
33     H33     0.0266   -2.6057   -2.1448 H        1 ZINC000000691977    0.1400
34     H34    -0.0636   -7.0116   -0.0453 H        1 ZINC000000691977    0.1000
35     H35     0.5181   -9.4028   -0.0626 H        1 ZINC000000691977    0.1200
36     H36     2.5252  -11.8710   -2.0212 H        1 ZINC000000691977    0.4100
37     H37     3.9405   -9.6399   -2.7826 H        1 ZINC000000691977    0.0800
38     H38     5.1493  -10.6683   -1.9769 H        1 ZINC000000691977    0.0800
39     H39     5.0838  -10.1649   -5.3451 H        1 ZINC000000691977    0.0900
40     H40     6.2983  -10.5920   -4.0917 H        1 ZINC000000691977    0.0900
41     H41     5.1831  -12.3505   -6.3507 H        1 ZINC000000691977    0.0800
42     H42     6.8867  -12.1753   -5.8111 H        1 ZINC000000691977    0.0800
43     H43     5.1933  -14.2151   -4.9430 H        1 ZINC000000691977    0.0700
44     H44     6.5854  -13.6120   -4.0032 H        1 ZINC000000691977    0.0700
45     H45     4.6651   -8.4042   -0.0588 H        1 ZINC000000691977    0.1200
46     H46     4.0944   -6.0102   -0.0483 H        1 ZINC000000691977    0.1200
47     H47     0.0503   -2.6289    2.1200 H        1 ZINC000000691977    0.1400
48     H48     0.0211   -0.1667    2.1335 H        1 ZINC000000691977    0.1300
@<TRIPOS>BOND
1     1     2     1
2     1     29    1
3     1     30    1
4     1     31    1
5     2     28    ar
6     2     3     ar
7     3     4     ar
8     3     32    1
9     4     5     ar
10    4     33    1
11    5     6     1
12    5     27    ar
13    6     7     2
14    6     8     2
15    6     9     1
16    9     10    1
17    10    26    ar
18    10    11    ar
19    11    12    ar
20    11    34    1
21    12    13    ar
22    12    35    1
23    13    14    1
24    13    25    ar
25    14    15    2
26    14    16    2
27    14    17    am
28    17    18    1
29    17    36    1
30    18    19    1
31    18    37    1
32    18    38    1
33    19    20    1
34    19    24    1
35    19    21    1
36    21    22    1
37    21    39    1
38    21    40    1
39    22    23    1
40    22    41    1
41    22    42    1
42    23    24    1
43    23    43    1
44    23    44    1
45    25    26    ar
46    25    45    1
47    26    46    1
48    27    28    ar
49    27    47    1
50    28    48    1
@<TRIPOS>SUBSTRUCTURE
1   ZINC000000691977 1     RESIDUE    1   A     ZIN   1
@<TRIPOS>MOLECULE
ZINC000001033532
  47   49    0    0    0
SMALL
USER_CHARGES
NO_NAME
@<TRIPOS>ATOM
    1 C1       -0.1146     1.6963    -0.9910 C.3    1 <0>      -0.1700
    2 C2        0.0040     0.2022    -0.8344 C.2    1 <0>       0.5200
    3 O3        0.4902    -0.2653     0.1736 O.2    1 <0>      -0.5100
    4 N4       -0.4303    -0.6147    -1.8146 N.am   1 <0>      -0.6800
    5 C5       -0.2322    -1.9967    -1.7130 C.ar   1 <0>       0.2200
    6 C6       -0.2761    -2.6163    -0.4717 C.ar   1 <0>      -0.1300
    7 C7       -0.0807    -3.9806    -0.3747 C.ar   1 <0>       0.0100
    8 C8        0.1585    -4.7292    -1.5121 C.ar   1 <0>      -0.6800
    9 S9        0.4072    -6.4688    -1.3832 S.o2   1 <0>       2.6900
   10 O10       1.1469    -6.8547    -2.5335 O.2    1 <0>      -0.9400
   11 O11       0.8509    -6.7135    -0.0557 O.2    1 <0>      -0.9400
   12 N12      -1.0784    -7.1877    -1.5198 N.am   1 <0>      -1.0400
   13 C13      -1.8400    -7.0061    -2.6805 C.ar   1 <0>       0.1500
   14 C14      -1.2155    -6.9169    -3.9148 C.ar   1 <0>      -0.1700
   15 C15      -1.9699    -6.7380    -5.0602 C.ar   1 <0>      -0.0900
   16 C16      -3.3466    -6.6470    -4.9786 C.ar   1 <0>      -0.1300
   17 C17      -3.9779    -6.7344    -3.7511 C.ar   1 <0>      -0.1000
   18 C18      -3.2301    -6.9200    -2.5987 C.ar   1 <0>       0.1500
   19 N19      -3.8671    -7.0092    -1.3551 N.pl3  1 <0>      -0.6800
   20 C20      -4.1211    -5.8066    -0.5461 C.3    1 <0>       0.1100
   21 C21      -5.5964    -5.8068    -0.1295 C.3    1 <0>       0.0500
   22 O22      -5.9132    -7.0606     0.4800 O.3    1 <0>      -0.3800
   23 C23      -5.7693    -8.1867    -0.3889 C.3    1 <0>       0.0500
   24 C24      -4.3079    -8.3077    -0.8212 C.3    1 <0>       0.1100
   25 C25       0.2027    -4.1158    -2.7509 C.ar   1 <0>       0.0200
   26 C26       0.0033    -2.7524    -2.8556 C.ar   1 <0>      -0.0900
   27 Cl27      0.0582    -1.9828    -4.4107 Cl     1 <0>      -0.0500
   28 H28       0.7871     2.0847    -1.4644 H      1 <0>       0.1000
   29 H29      -0.9799     1.9291    -1.6116 H      1 <0>       0.0900
   30 H30      -0.2368     2.1558    -0.0102 H      1 <0>       0.1000
   31 H31      -0.8801    -0.2449    -2.5904 H      1 <0>       0.4200
   32 H32      -0.4626    -2.0325     0.4175 H      1 <0>       0.1600
   33 H33      -0.1145    -4.4629     0.5911 H      1 <0>       0.1500
   34 H34      -1.4208    -7.7347    -0.7956 H      1 <0>       0.4300
   35 H35      -0.1399    -6.9869    -3.9821 H      1 <0>       0.1600
   36 H36      -1.4817    -6.6687    -6.0211 H      1 <0>       0.1300
   37 H37      -3.9311    -6.5069    -5.8759 H      1 <0>       0.1300
   38 H38      -5.0538    -6.6622    -3.6909 H      1 <0>       0.1200
   39 H39      -3.4890    -5.8212     0.3418 H      1 <0>       0.0600
   40 H40      -3.9063    -4.9154    -1.1357 H      1 <0>       0.0800
   41 H41      -5.7738    -5.0007     0.5824 H      1 <0>       0.1000
   42 H42      -6.2232    -5.6610    -1.0093 H      1 <0>       0.0500
   43 H43      -6.0711    -9.0928     0.1365 H      1 <0>       0.1000
   44 H44      -6.3967    -8.0496    -1.2696 H      1 <0>       0.0500
   45 H45      -4.2151    -9.0736    -1.5913 H      1 <0>       0.0800
   46 H46      -3.6918    -8.5736     0.0377 H      1 <0>       0.0600
   47 H47       0.3894    -4.7034    -3.6375 H      1 <0>       0.1600
@<TRIPOS>BOND
   1    1    2 1
   2    1   28 1
   3    1   29 1
   4    1   30 1
   5    2    3 2
   6    2    4 am
   7    4    5 1
   8    4   31 1
   9    5   26 ar
  10    5    6 ar
  11    6    7 ar
  12    6   32 1
  13    7    8 ar
  14    7   33 1
  15    8    9 1
  16    8   25 ar
  17    9   10 2
  18    9   11 2
  19    9   12 am
  20   12   13 1
  21   12   34 1
  22   13   18 ar
  23   13   14 ar
  24   14   15 ar
  25   14   35 1
  26   15   16 ar
  27   15   36 1
  28   16   17 ar
  29   16   37 1
  30   17   18 ar
  31   17   38 1
  32   18   19 1
  33   19   24 1
  34   19   20 1
  35   20   21 1
  36   20   39 1
  37   20   40 1
  38   21   22 1
  39   21   41 1
  40   21   42 1
  41   22   23 1
  42   23   24 1
  43   23   43 1
  44   23   44 1
  45   24   45 1
  46   24   46 1
  47   25   26 ar
  48   25   47 1
  49   26   27 1

@<TRIPOS>MOLECULE
ZINC000001033532
  46   48    0    0    0
SMALL
USER_CHARGES
NO_NAME
@<TRIPOS>ATOM
    1 C1        0.5436     1.5107    -0.1389 C.3    1 <0>      -0.1700
    2 C2        0.5739     0.0041    -0.1536 C.2    1 <0>       0.5100
    3 O3        1.1147    -0.6005     0.7482 O.2    1 <0>      -0.5200
    4 N4        0.0001    -0.6716    -1.1688 N.am   1 <0>      -0.6700
    5 C5        0.1091    -2.0657    -1.2317 C.ar   1 <0>       0.1900
    6 C6        0.1188    -2.8161    -0.0640 C.ar   1 <0>      -0.1300
    7 C7        0.2261    -4.1920    -0.1293 C.ar   1 <0>       0.0000
    8 C8        0.3236    -4.8222    -1.3559 C.ar   1 <0>      -0.6100
    9 S9        0.4602    -6.5772    -1.4340 S.o2   1 <0>       2.6000
   10 O10       1.0797    -6.8765    -2.6774 O.2    1 <0>      -1.0300
   11 O11       0.9877    -6.9948    -0.1824 O.2    1 <0>      -1.0300
   12 N12      -1.0778    -7.1852    -1.5196 N.pl3  1 <0>      -1.0600
   13 C13      -1.2806    -8.5687    -1.5926 C.ar   1 <0>       0.2700
   14 C14      -0.1956    -9.4315    -1.5877 C.ar   1 <0>      -0.2600
   15 C15      -0.3983   -10.7978    -1.6595 C.ar   1 <0>      -0.0700
   16 C16      -1.6808   -11.3071    -1.7367 C.ar   1 <0>      -0.2200
   17 C17      -2.7690   -10.4535    -1.7426 C.ar   1 <0>      -0.0800
   18 C18      -2.5754    -9.0831    -1.6648 C.ar   1 <0>       0.1000
   19 N19      -3.6756    -8.2171    -1.6701 N.pl3  1 <0>      -0.6400
   20 C20      -4.2185    -7.6899    -2.9322 C.3    1 <0>       0.1200
   21 C21      -5.7324    -7.9300    -2.9450 C.3    1 <0>       0.0500
   22 O22      -6.3019    -7.4085    -1.7419 O.3    1 <0>      -0.3900
   23 C23      -5.8324    -8.0421    -0.5495 C.3    1 <0>       0.0500
   24 C24      -4.3270    -7.8122    -0.4143 C.3    1 <0>       0.1200
   25 C25       0.3138    -4.0784    -2.5218 C.ar   1 <0>       0.0100
   26 C26       0.2020    -2.7022    -2.4639 C.ar   1 <0>      -0.0900
   27 Cl27      0.1891    -1.7688    -3.9275 Cl     1 <0>      -0.0700
   28 H28       1.4241     1.8969    -0.6524 H      1 <0>       0.1000
   29 H29      -0.3555     1.8610    -0.6458 H      1 <0>       0.0800
   30 H30       0.5402     1.8640     0.8923 H      1 <0>       0.1000
   31 H31      -0.4885    -0.1918    -1.8559 H      1 <0>       0.4100
   32 H32       0.0431    -2.3248     0.8948 H      1 <0>       0.1500
   33 H33       0.2341    -4.7760     0.7792 H      1 <0>       0.1500
   34 H34       0.8079    -9.0368    -1.5282 H      1 <0>       0.1000
   35 H35       0.4481   -11.4686    -1.6555 H      1 <0>       0.1000
   36 H36      -1.8336   -12.3748    -1.7929 H      1 <0>       0.1000
   37 H37      -3.7698   -10.8549    -1.8038 H      1 <0>       0.1000
   38 H38      -4.0157    -6.6212    -3.0010 H      1 <0>       0.0500
   39 H39      -3.7577    -8.2065    -3.7742 H      1 <0>       0.0700
   40 H40      -6.1737    -7.4261    -3.8049 H      1 <0>       0.0900
   41 H41      -5.9309    -9.0000    -3.0077 H      1 <0>       0.0500
   42 H42      -6.3456    -7.6188     0.3140 H      1 <0>       0.0900
   43 H43      -6.0312    -9.1125    -0.6035 H      1 <0>       0.0500
   44 H44      -3.9375    -8.4073     0.4116 H      1 <0>       0.0700
   45 H45      -4.1321    -6.7557    -0.2301 H      1 <0>       0.0500
   46 H46       0.3898    -4.5737    -3.4785 H      1 <0>       0.1500
@<TRIPOS>BOND
   1    1    2 1
   2    1   28 1
   3    1   29 1
   4    1   30 1
   5    2    3 2
   6    2    4 am
   7    4    5 1
   8    4   31 1
   9    5   26 ar
  10    5    6 ar
  11    6    7 ar
  12    6   32 1
  13    7    8 ar
  14    7   33 1
  15    8    9 1
  16    8   25 ar
  17    9   10 2
  18    9   11 2
  19    9   12 1
  20   12   13 1
  21   13   18 ar
  22   13   14 ar
  23   14   15 ar
  24   14   34 1
  25   15   16 ar
  26   15   35 1
  27   16   17 ar
  28   16   36 1
  29   17   18 ar
  30   17   37 1
  31   18   19 1
  32   19   24 1
  33   19   20 1
  34   20   21 1
  35   20   38 1
  36   20   39 1
  37   21   22 1
  38   21   40 1
  39   21   41 1
  40   22   23 1
  41   23   24 1
  42   23   42 1
  43   23   43 1
  44   24   44 1
  45   24   45 1
  46   25   26 ar
  47   25   46 1
  48   26   27 1
@<TRIPOS>MOLECULE
ZINC000015890432
35    36    1     0     0
SMALL
USER_CHARGES
@<TRIPOS>ATOM
1      C1      0.5747    1.4644   -0.0621 C.3      1 ZINC000015890432   -0.0600
2      C2      0.4423   -0.0368   -0.0562 C.2      1 ZINC000015890432    0.0400
3      N3      0.2592   -0.8074   -1.0918 N.2      1 ZINC000015890432   -0.4200
4      O4      0.1906   -1.9731   -0.7786 O.3      1 ZINC000015890432   -0.0100
5      C5      0.3235   -2.1343    0.5476 C.2      1 ZINC000015890432    0.3100
6      N6      0.2953   -3.3273    1.2455 N.pl3    1 ZINC000015890432   -1.0200
7      S7      0.0784   -4.7554    0.4358 S.o2     1 ZINC000015890432    2.6100
8      O8     -1.2398   -4.7202   -0.0938 O.2      1 ZINC000015890432   -1.0200
9      O9      1.2347   -4.9399   -0.3693 O.2      1 ZINC000015890432   -1.0200
10     C10     0.0977   -6.0443    1.6370 C.ar     1 ZINC000015890432   -0.6200
11     C11     1.2925   -6.6504    1.9795 C.ar     1 ZINC000015890432    0.0000
12     C12     1.3110   -7.6610    2.9207 C.ar     1 ZINC000015890432   -0.1400
13     C13     0.1281   -8.0679    3.5237 C.ar     1 ZINC000015890432    0.1700
14     N14     0.1435   -9.0911    4.4780 N.am     1 ZINC000015890432   -0.6500
15     C15     1.2046   -9.2331    5.2967 C.2      1 ZINC000015890432    0.5200
16     O16     2.1027   -8.4183    5.2723 O.2      1 ZINC000015890432   -0.4500
17     C17     1.2753  -10.4043    6.2425 C.3      1 ZINC000015890432    0.1000
18     Cl18    2.8029  -10.3154    7.1961 Cl       1 ZINC000015890432   -0.0300
19     Cl19   -0.1364  -10.3577    7.3632 Cl       1 ZINC000015890432   -0.0600
20     Cl20    1.2438  -11.9408    5.2998 Cl       1 ZINC000015890432   -0.0600
21     C21    -1.0701   -7.4569    3.1780 C.ar     1 ZINC000015890432   -0.1600
22     C22    -1.0812   -6.4436    2.2395 C.ar     1 ZINC000015890432    0.0000
23     C23     0.4984   -0.8828    1.0686 C.2      1 ZINC000015890432   -0.3200
24     C24     0.6962   -0.4970    2.5119 C.3      1 ZINC000015890432   -0.0300
25     H25     1.6234    1.7362   -0.1820 H        1 ZINC000015890432    0.0700
26     H26    -0.0044    1.8769   -0.8883 H        1 ZINC000015890432    0.0600
27     H27     0.2007    1.8658    0.8797 H        1 ZINC000015890432    0.0700
28     H28     2.2121   -6.3334    1.5101 H        1 ZINC000015890432    0.1500
29     H29     2.2444   -8.1344    3.1872 H        1 ZINC000015890432    0.1400
30     H30    -0.6095   -9.6983    4.5504 H        1 ZINC000015890432    0.4200
31     H31    -1.9917   -7.7711    3.6452 H        1 ZINC000015890432    0.1300
32     H32    -2.0127   -5.9680    1.9702 H        1 ZINC000015890432    0.1500
33     H33     1.7607   -0.4991    2.7460 H        1 ZINC000015890432    0.0400
34     H34     0.2890    0.4999    2.6805 H        1 ZINC000015890432    0.0400
35     H35     0.1818   -1.2128    3.1531 H        1 ZINC000015890432    0.0600
@<TRIPOS>BOND
1     1     2     1
2     1     25    1
3     1     26    1
4     1     27    1
5     2     23    1
6     2     3     2
7     3     4     1
8     4     5     1
9     5     6     1
10    5     23    2
11    6     7     1
12    7     8     2
13    7     9     2
14    7     10    1
15    10    22    ar
16    10    11    ar
17    11    12    ar
18    11    28    1
19    12    13    ar
20    12    29    1
21    13    14    1
22    13    21    ar
23    14    15    am
24    14    30    1
25    15    16    2
26    15    17    1
27    17    18    1
28    17    19    1
29    17    20    1
30    21    22    ar
31    21    31    1
32    22    32    1
33    23    24    1
34    24    33    1
35    24    34    1
36    24    35    1
@<TRIPOS>SUBSTRUCTURE
1   ZINC000015890432 1     RESIDUE    1   A     ZIN   1
@<TRIPOS>MOLECULE
ZINC000096379592
44    46    1     0     0
SMALL
USER_CHARGES
@<TRIPOS>ATOM
1      C1     -0.0184    1.5028    0.0103 C.3      1 ZINC000096379592   -0.0500
2      C2      0.0021   -0.0041    0.0020 C.2      1 ZINC000096379592    0.1300
3      N3      0.0081   -0.7673   -1.0536 N.2      1 ZINC000096379592   -0.2800
4      N4      0.0264   -2.0020   -0.6925 N.2      1 ZINC000096379592   -0.1800
5      C5      0.0326   -2.0696    0.6189 C.2      1 ZINC000096379592    0.2100
6      C6      0.0534   -3.3022    1.4330 C.2      1 ZINC000096379592   -0.0300
7      C7      0.0545   -3.3751    2.7947 C.2      1 ZINC000096379592    0.0500
8      C8      0.0340   -2.2048    3.7439 C.3      1 ZINC000096379592   -0.0900
9      N9      0.0768   -4.6880    3.1460 N.pl3    1 ZINC000096379592   -0.5400
10     C10     0.0899   -5.4523    2.0153 C.2      1 ZINC000096379592    0.1400
11     C11     0.1147   -6.9584    1.9720 C.3      1 ZINC000096379592   -0.1200
12     C12     0.0700   -4.6364    0.9459 C.2      1 ZINC000096379592   -0.6500
13     S13     0.0755   -5.1309   -0.7453 S.o2     1 ZINC000096379592    2.6200
14     O14     0.5946   -4.0327   -1.4827 O.2      1 ZINC000096379592   -0.9800
15     O15     0.6474   -6.4312   -0.7813 O.2      1 ZINC000096379592   -1.0400
16     N16    -1.5044   -5.3019   -1.2111 N.pl3    1 ZINC000096379592   -1.0800
17     C17    -1.8091   -5.6906   -2.5176 C.ar     1 ZINC000096379592    0.2900
18     C18    -0.7881   -5.9398   -3.4257 C.ar     1 ZINC000096379592   -0.2400
19     C19    -1.0930   -6.3245   -4.7168 C.ar     1 ZINC000096379592   -0.0700
20     C20    -2.4127   -6.4617   -5.1056 C.ar     1 ZINC000096379592   -0.1900
21     C21    -3.4318   -6.2140   -4.2040 C.ar     1 ZINC000096379592   -0.1500
22     C22    -4.8688   -6.3648   -4.6323 C.3      1 ZINC000096379592    0.5100
23     F23    -4.9166   -6.7603   -5.9733 F        1 ZINC000096379592   -0.1900
24     F24    -5.4930   -7.3328   -3.8381 F        1 ZINC000096379592   -0.1800
25     F25    -5.5308   -5.1415   -4.4830 F        1 ZINC000096379592   -0.1800
26     C26    -3.1341   -5.8346   -2.9101 C.ar     1 ZINC000096379592   -0.1000
27     C27    -4.2452   -5.5648   -1.9284 C.3      1 ZINC000096379592   -0.1000
28     O28     0.0232   -0.8041    1.0836 O.3      1 ZINC000096379592   -0.2300
29     H29     1.0042    1.8801    0.0026 H        1 ZINC000096379592    0.0900
30     H30    -0.5455    1.8639   -0.8728 H        1 ZINC000096379592    0.1000
31     H31    -0.5286    1.8543    0.9071 H        1 ZINC000096379592    0.0900
32     H32    -0.9984   -1.9405    3.9726 H        1 ZINC000096379592    0.0800
33     H33     0.5525   -2.4743    4.6641 H        1 ZINC000096379592    0.0700
34     H34     0.5333   -1.3532    3.2817 H        1 ZINC000096379592    0.0900
35     H35     0.0824   -5.0274    4.0547 H        1 ZINC000096379592    0.4200
36     H36    -0.9068   -7.3385    1.9615 H        1 ZINC000096379592    0.0900
37     H37     0.6341   -7.2876    1.0720 H        1 ZINC000096379592    0.1300
38     H38     0.6349   -7.3387    2.8512 H        1 ZINC000096379592    0.0700
39     H39     0.2429   -5.8324   -3.1227 H        1 ZINC000096379592    0.1000
40     H40    -0.2995   -6.5180   -5.4235 H        1 ZINC000096379592    0.1100
41     H41    -2.6483   -6.7627   -6.1157 H        1 ZINC000096379592    0.1100
42     H42    -4.4997   -6.4867   -1.4054 H        1 ZINC000096379592    0.0600
43     H43    -3.9186   -4.8160   -1.2068 H        1 ZINC000096379592    0.0800
44     H44    -5.1209   -5.1967   -2.4630 H        1 ZINC000096379592    0.0500
@<TRIPOS>BOND
1     1     2     1
2     1     29    1
3     1     30    1
4     1     31    1
5     2     28    1
6     2     3     2
7     3     4     1
8     4     5     2
9     5     6     1
10    5     28    1
11    6     12    1
12    6     7     2
13    7     8     1
14    7     9     1
15    8     32    1
16    8     33    1
17    8     34    1
18    9     10    1
19    9     35    1
20    10    11    1
21    10    12    2
22    11    36    1
23    11    37    1
24    11    38    1
25    12    13    1
26    13    14    2
27    13    15    2
28    13    16    1
29    16    17    1
30    17    26    ar
31    17    18    ar
32    18    19    ar
33    18    39    1
34    19    20    ar
35    19    40    1
36    20    21    ar
37    20    41    1
38    21    22    1
39    21    26    ar
40    22    23    1
41    22    24    1
42    22    25    1
43    26    27    1
44    27    42    1
45    27    43    1
46    27    44    1
@<TRIPOS>SUBSTRUCTURE
1   ZINC000096379592 1     RESIDUE    1   A     ZIN   1

@<TRIPOS>MOLECULE
ZINC000096379592
45    47    1     0     0
SMALL
USER_CHARGES
@<TRIPOS>ATOM
1      C1      2.0325    0.5978   -3.2917 C.3      1 ZINC000096379592   -0.0600
2      C2      1.5815   -0.6159   -2.5206 C.2      1 ZINC000096379592    0.1500
3      N3      1.5033   -1.8328   -2.9788 N.2      1 ZINC000096379592   -0.2800
4      N4      1.0810   -2.6166   -2.0499 N.2      1 ZINC000096379592   -0.2100
5      C5      0.8733   -1.9197   -0.9565 C.2      1 ZINC000096379592    0.2100
6      C6      0.3877   -2.4425    0.3371 C.2      1 ZINC000096379592   -0.0300
7      C7      0.3107   -1.7553    1.5124 C.2      1 ZINC000096379592    0.0700
8      C8      0.7081   -0.3172    1.7247 C.3      1 ZINC000096379592   -0.1000
9      N9     -0.1876   -2.5942    2.4588 N.pl3    1 ZINC000096379592   -0.5300
10     C10    -0.4286   -3.8125    1.8928 C.2      1 ZINC000096379592    0.1700
11     C11    -0.9845   -5.0186    2.6050 C.3      1 ZINC000096379592   -0.1300
12     C12    -0.0934   -3.7546    0.5913 C.2      1 ZINC000096379592   -0.7100
13     S13    -0.2169   -5.0666   -0.5784 S.o2     1 ZINC000096379592    2.6900
14     O14     0.5894   -4.6928   -1.6872 O.2      1 ZINC000096379592   -0.8900
15     O15    -0.0270   -6.2722    0.1494 O.2      1 ZINC000096379592   -0.9500
16     N16    -1.7802   -5.0911   -1.1241 N.am     1 ZINC000096379592   -1.0500
17     C17    -2.3258   -3.9578   -1.7314 C.ar     1 ZINC000096379592    0.1600
18     C18    -1.5407   -3.1655   -2.5590 C.ar     1 ZINC000096379592   -0.1400
19     C19    -2.0835   -2.0457   -3.1583 C.ar     1 ZINC000096379592   -0.1000
20     C20    -3.4069   -1.7131   -2.9352 C.ar     1 ZINC000096379592   -0.0800
21     C21    -4.1914   -2.4997   -2.1113 C.ar     1 ZINC000096379592   -0.1700
22     C22    -5.6333   -2.1334   -1.8711 C.3      1 ZINC000096379592    0.5100
23     F23    -5.9435   -0.9693   -2.5824 F        1 ZINC000096379592   -0.1800
24     F24    -6.4580   -3.1776   -2.3032 F        1 ZINC000096379592   -0.1700
25     F25    -5.8371   -1.9131   -0.5046 F        1 ZINC000096379592   -0.1800
26     C26    -3.6566   -3.6237   -1.5136 C.ar     1 ZINC000096379592   -0.0500
27     C27    -4.5122   -4.4802   -0.6160 C.3      1 ZINC000096379592   -0.1400
28     O28     1.1922   -0.6394   -1.2328 O.3      1 ZINC000096379592   -0.2200
29     H29     3.1113    0.7141   -3.1876 H        1 ZINC000096379592    0.1000
30     H30     1.7804    0.4735   -4.3448 H        1 ZINC000096379592    0.1100
31     H31     1.5321    1.4835   -2.9003 H        1 ZINC000096379592    0.0900
32     H32    -0.1504    0.3282    1.5387 H        1 ZINC000096379592    0.0900
33     H33     1.0485   -0.1821    2.7513 H        1 ZINC000096379592    0.0800
34     H34     1.5134   -0.0575    1.0376 H        1 ZINC000096379592    0.0900
35     H35    -0.3464   -2.3638    3.3875 H        1 ZINC000096379592    0.4300
36     H36    -2.0725   -5.0100    2.5392 H        1 ZINC000096379592    0.0900
37     H37    -0.5995   -5.9254    2.1386 H        1 ZINC000096379592    0.1200
38     H38    -0.6836   -4.9928    3.6523 H        1 ZINC000096379592    0.0900
39     H39    -2.3170   -5.8926   -1.0221 H        1 ZINC000096379592    0.4300
40     H40    -0.5068   -3.4245   -2.7334 H        1 ZINC000096379592    0.2000
41     H41    -1.4735   -1.4289   -3.8016 H        1 ZINC000096379592    0.1300
42     H42    -3.8289   -0.8370   -3.4050 H        1 ZINC000096379592    0.1400
43     H43    -5.0019   -5.2522   -1.2095 H        1 ZINC000096379592    0.0900
44     H44    -3.8864   -4.9483    0.1438 H        1 ZINC000096379592    0.0800
45     H45    -5.2670   -3.8595   -0.1332 H        1 ZINC000096379592    0.0800
@<TRIPOS>BOND
1     1     2     1
2     1     29    1
3     1     30    1
4     1     31    1
5     2     28    1
6     2     3     2
7     3     4     1
8     4     5     2
9     5     6     1
10    5     28    1
11    6     12    1
12    6     7     2
13    7     8     1
14    7     9     1
15    8     32    1
16    8     33    1
17    8     34    1
18    9     10    1
19    9     35    1
20    10    11    1
21    10    12    2
22    11    36    1
23    11    37    1
24    11    38    1
25    12    13    1
26    13    14    2
27    13    15    2
28    13    16    am
29    16    17    1
30    16    39    1
31    17    26    ar
32    17    18    ar
33    18    19    ar
34    18    40    1
35    19    20    ar
36    19    41    1
37    20    21    ar
38    20    42    1
39    21    22    1
40    21    26    ar
41    22    23    1
42    22    24    1
43    22    25    1
44    26    27    1
45    27    43    1
46    27    44    1
47    27    45    1
@<TRIPOS>SUBSTRUCTURE
1   ZINC000096379592 1     RESIDUE    1   A     ZIN   1
@<TRIPOS>MOLECULE
ZINC000098087071
38    39    1     0     0
SMALL
USER_CHARGES
@<TRIPOS>ATOM
1      C1      0.6676    0.5004    0.4368 C.2      1 ZINC000098087071   -0.1800
2      C2      0.5764   -0.7378    0.0189 C.2      1 ZINC000098087071   -0.1400
3      C3     -0.7370   -1.4705    0.1145 C.3      1 ZINC000098087071    0.0900
4      O4     -0.9859   -2.1638   -1.1101 O.3      1 ZINC000098087071   -0.3100
5      C5     -2.1366   -2.8789   -1.1903 C.ar     1 ZINC000098087071    0.1000
6      C6     -2.1532   -4.2112   -0.7936 C.ar     1 ZINC000098087071   -0.1000
7      I7     -0.4020   -5.1088   -0.0746 I        1 ZINC000098087071   -0.0200
8      C8     -3.3170   -4.9423   -0.8715 C.ar     1 ZINC000098087071    0.0000
9      C9     -4.4901   -4.3421   -1.3528 C.ar     1 ZINC000098087071   -0.0300
10     C10    -5.7289   -5.1151   -1.4367 C.2      1 ZINC000098087071    0.0200
11     C11    -6.1212   -5.9089   -0.3758 C.2      1 ZINC000098087071   -0.2500
12     C12    -5.4475   -5.8314    0.9355 C.2      1 ZINC000098087071    0.5300
13     O13    -4.5233   -5.0621    1.1188 O.2      1 ZINC000098087071   -0.5400
14     N14    -5.8855   -6.6369    1.9250 N.pl3    1 ZINC000098087071   -0.7000
15     C15    -6.9029   -7.4888    1.7369 C.2      1 ZINC000098087071    0.6600
16     O16    -7.2482   -8.1867    2.6701 O.2      1 ZINC000098087071   -0.5900
17     N17    -7.5605   -7.6125    0.5757 N.am     1 ZINC000098087071   -0.6900
18     C18    -7.2367   -6.8678   -0.5015 C.2      1 ZINC000098087071    0.5700
19     O19    -7.8414   -6.9891   -1.5499 O.2      1 ZINC000098087071   -0.5400
20     C20    -4.4708   -2.9969   -1.7532 C.ar     1 ZINC000098087071   -0.1600
21     C21    -3.3008   -2.2723   -1.6656 C.ar     1 ZINC000098087071    0.1000
22     O22    -3.2784   -0.9687   -2.0521 O.3      1 ZINC000098087071   -0.3000
23     C23    -4.5027   -0.4152   -2.5387 C.3      1 ZINC000098087071    0.0500
24     C24    -4.2834    1.0496   -2.9223 C.3      1 ZINC000098087071   -0.1500
25     H25     1.6089    1.0255    0.3683 H        1 ZINC000098087071    0.1000
26     H26    -0.1996    0.9976    0.8457 H        1 ZINC000098087071    0.1000
27     H27     1.4425   -1.2335   -0.3941 H        1 ZINC000098087071    0.1200
28     H28    -0.6947   -2.1865    0.9352 H        1 ZINC000098087071    0.0700
29     H29    -1.5394   -0.7557    0.2969 H        1 ZINC000098087071    0.0600
30     H30    -3.3269   -5.9771   -0.5626 H        1 ZINC000098087071    0.1300
31     H31    -6.3371   -5.0655   -2.3278 H        1 ZINC000098087071    0.1400
32     H32    -8.2885   -8.2501    0.5092 H        1 ZINC000098087071    0.4000
33     H33    -5.3706   -2.5295   -2.1249 H        1 ZINC000098087071    0.1400
34     H34    -4.8318   -0.9747   -3.4143 H        1 ZINC000098087071    0.0600
35     H35    -5.2639   -0.4770   -1.7609 H        1 ZINC000098087071    0.0600
36     H36    -5.2172    1.4718   -3.2934 H        1 ZINC000098087071    0.0800
37     H37    -3.9543    1.6092   -2.0467 H        1 ZINC000098087071    0.0600
38     H38    -3.5222    1.1114   -3.7001 H        1 ZINC000098087071    0.0700
@<TRIPOS>BOND
1     1     2     2
2     1     25    1
3     1     26    1
4     2     3     1
5     2     27    1
6     3     4     1
7     3     28    1
8     3     29    1
9     4     5     1
10    5     21    ar
11    5     6     ar
12    6     7     1
13    6     8     ar
14    8     9     ar
15    8     30    1
16    9     10    1
17    9     20    ar
18    10    11    2
19    10    31    1
20    11    18    1
21    11    12    1
22    12    13    2
23    12    14    1
24    14    15    1
25    15    16    2
26    15    17    am
27    17    18    am
28    17    32    1
29    18    19    2
30    20    21    ar
31    20    33    1
32    21    22    1
33    22    23    1
34    23    24    1
35    23    34    1
36    23    35    1
37    24    36    1
38    24    37    1
39    24    38    1
@<TRIPOS>SUBSTRUCTURE
1   ZINC000098087071 1     RESIDUE    1   A     ZIN   1

@<TRIPOS>MOLECULE
ZINC000098087071
38    39    1     0     0
SMALL
USER_CHARGES
@<TRIPOS>ATOM
1      C1      0.6701    0.4967    0.4394 C.2      1 ZINC000098087071   -0.1800
2      C2      0.5783   -0.7407    0.0193 C.2      1 ZINC000098087071   -0.1400
3      C3     -0.7349   -1.4736    0.1151 C.3      1 ZINC000098087071    0.0900
4      O4     -0.9854   -2.1645   -1.1104 O.3      1 ZINC000098087071   -0.3100
5      C5     -2.1363   -2.8794   -1.1906 C.ar     1 ZINC000098087071    0.1000
6      C6     -2.1524   -4.2125   -0.7964 C.ar     1 ZINC000098087071   -0.0900
7      I7     -0.4003   -5.1115   -0.0813 I        1 ZINC000098087071   -0.0200
8      C8     -3.3163   -4.9434   -0.8742 C.ar     1 ZINC000098087071   -0.0200
9      C9     -4.4900   -4.3423   -1.3529 C.ar     1 ZINC000098087071   -0.0300
10     C10    -5.7289   -5.1151   -1.4367 C.2      1 ZINC000098087071    0.0200
11     C11    -6.1212   -5.9089   -0.3758 C.2      1 ZINC000098087071   -0.2400
12     C12    -7.2326   -6.8722   -0.5033 C.2      1 ZINC000098087071    0.5300
13     O13    -7.8369   -6.9940   -1.5519 O.2      1 ZINC000098087071   -0.5600
14     N14    -7.5593   -7.6139    0.5751 N.pl3    1 ZINC000098087071   -0.7000
15     C15    -6.9017   -7.4902    1.7364 C.2      1 ZINC000098087071    0.6600
16     O16    -7.2465   -8.1886    2.6693 O.2      1 ZINC000098087071   -0.5900
17     N17    -5.8843   -6.6383    1.9244 N.am     1 ZINC000098087071   -0.6900
18     C18    -5.4435   -5.8358    0.9337 C.2      1 ZINC000098087071    0.5600
19     O19    -4.5188   -5.0671    1.1168 O.2      1 ZINC000098087071   -0.5200
20     C20    -4.4711   -2.9963   -1.7507 C.ar     1 ZINC000098087071   -0.1600
21     C21    -3.3010   -2.2719   -1.6632 C.ar     1 ZINC000098087071    0.1100
22     O22    -3.2791   -0.9675   -2.0473 O.3      1 ZINC000098087071   -0.3000
23     C23    -4.5041   -0.4131   -2.5312 C.3      1 ZINC000098087071    0.0500
24     C24    -4.2851    1.0524   -2.9123 C.3      1 ZINC000098087071   -0.1500
25     H25     1.6113    1.0219    0.3707 H        1 ZINC000098087071    0.1000
26     H26    -0.1966    0.9931    0.8504 H        1 ZINC000098087071    0.1000
27     H27     1.4439   -1.2356   -0.3958 H        1 ZINC000098087071    0.1200
28     H28    -0.6916   -2.1912    0.9345 H        1 ZINC000098087071    0.0600
29     H29    -1.5371   -0.7591    0.3000 H        1 ZINC000098087071    0.0600
30     H30    -3.3258   -5.9788   -0.5673 H        1 ZINC000098087071    0.1300
31     H31    -6.3371   -5.0654   -2.3278 H        1 ZINC000098087071    0.1500
32     H32    -5.4525   -6.6003    2.7922 H        1 ZINC000098087071    0.4000
33     H33    -5.3715   -2.5282   -2.1204 H        1 ZINC000098087071    0.1400
34     H34    -4.8342   -0.9709   -3.4075 H        1 ZINC000098087071    0.0600
35     H35    -5.2642   -0.4764   -1.7526 H        1 ZINC000098087071    0.0600
36     H36    -5.2195    1.4753   -3.2814 H        1 ZINC000098087071    0.0800
37     H37    -3.9550    1.6103   -2.0360 H        1 ZINC000098087071    0.0600
38     H38    -3.5250    1.1158   -3.6909 H        1 ZINC000098087071    0.0700
@<TRIPOS>BOND
1     1     2     2
2     1     25    1
3     1     26    1
4     2     3     1
5     2     27    1
6     3     4     1
7     3     28    1
8     3     29    1
9     4     5     1
10    5     21    ar
11    5     6     ar
12    6     7     1
13    6     8     ar
14    8     9     ar
15    8     30    1
16    9     10    1
17    9     20    ar
18    10    11    2
19    10    31    1
20    11    18    1
21    11    12    1
22    12    13    2
23    12    14    1
24    14    15    1
25    15    16    2
26    15    17    am
27    17    18    am
28    17    32    1
29    18    19    2
30    20    21    ar
31    20    33    1
32    21    22    1
33    22    23    1
34    23    24    1
35    23    34    1
36    23    35    1
37    24    36    1
38    24    37    1
39    24    38    1
@<TRIPOS>SUBSTRUCTURE
1   ZINC000098087071 1     RESIDUE    1   A     ZIN   1

@<TRIPOS>MOLECULE
ZINC000098087071
38    39    1     0     0
SMALL
USER_CHARGES
@<TRIPOS>ATOM
1      C1      0.6676    0.5004    0.4368 C.2      1 ZINC000098087071   -0.1800
2      C2      0.5764   -0.7378    0.0189 C.2      1 ZINC000098087071   -0.1400
3      C3     -0.7370   -1.4705    0.1145 C.3      1 ZINC000098087071    0.0900
4      O4     -0.9859   -2.1638   -1.1101 O.3      1 ZINC000098087071   -0.3100
5      C5     -2.1366   -2.8789   -1.1903 C.ar     1 ZINC000098087071    0.1000
6      C6     -2.1532   -4.2112   -0.7936 C.ar     1 ZINC000098087071   -0.1000
7      I7     -0.4020   -5.1088   -0.0746 I        1 ZINC000098087071   -0.0200
8      C8     -3.3170   -4.9423   -0.8715 C.ar     1 ZINC000098087071    0.0000
9      C9     -4.4901   -4.3421   -1.3528 C.ar     1 ZINC000098087071   -0.0300
10     C10    -5.7289   -5.1151   -1.4367 C.2      1 ZINC000098087071    0.0200
11     C11    -6.1212   -5.9089   -0.3758 C.2      1 ZINC000098087071   -0.2500
12     C12    -5.4475   -5.8314    0.9355 C.2      1 ZINC000098087071    0.5300
13     O13    -4.5233   -5.0621    1.1188 O.2      1 ZINC000098087071   -0.5400
14     N14    -5.8855   -6.6369    1.9250 N.pl3    1 ZINC000098087071   -0.7000
15     C15    -6.9029   -7.4888    1.7369 C.2      1 ZINC000098087071    0.6600
16     O16    -7.2482   -8.1867    2.6701 O.2      1 ZINC000098087071   -0.5900
17     N17    -7.5605   -7.6125    0.5757 N.am     1 ZINC000098087071   -0.6900
18     C18    -7.2367   -6.8678   -0.5015 C.2      1 ZINC000098087071    0.5700
19     O19    -7.8414   -6.9891   -1.5499 O.2      1 ZINC000098087071   -0.5400
20     C20    -4.4708   -2.9969   -1.7532 C.ar     1 ZINC000098087071   -0.1600
21     C21    -3.3008   -2.2723   -1.6656 C.ar     1 ZINC000098087071    0.1000
22     O22    -3.2784   -0.9687   -2.0521 O.3      1 ZINC000098087071   -0.3000
23     C23    -4.5027   -0.4152   -2.5387 C.3      1 ZINC000098087071    0.0500
24     C24    -4.2834    1.0496   -2.9223 C.3      1 ZINC000098087071   -0.1500
25     H25     1.6089    1.0255    0.3683 H        1 ZINC000098087071    0.1000
26     H26    -0.1996    0.9976    0.8457 H        1 ZINC000098087071    0.1000
27     H27     1.4425   -1.2335   -0.3941 H        1 ZINC000098087071    0.1200
28     H28    -0.6947   -2.1865    0.9352 H        1 ZINC000098087071    0.0700
29     H29    -1.5394   -0.7557    0.2969 H        1 ZINC000098087071    0.0600
30     H30    -3.3269   -5.9771   -0.5626 H        1 ZINC000098087071    0.1300
31     H31    -6.3371   -5.0655   -2.3278 H        1 ZINC000098087071    0.1400
32     H32    -8.2885   -8.2501    0.5092 H        1 ZINC000098087071    0.4000
33     H33    -5.3706   -2.5295   -2.1249 H        1 ZINC000098087071    0.1400
34     H34    -4.8318   -0.9747   -3.4143 H        1 ZINC000098087071    0.0600
35     H35    -5.2639   -0.4770   -1.7609 H        1 ZINC000098087071    0.0600
36     H36    -5.2172    1.4718   -3.2934 H        1 ZINC000098087071    0.0800
37     H37    -3.9543    1.6092   -2.0467 H        1 ZINC000098087071    0.0600
38     H38    -3.5222    1.1114   -3.7001 H        1 ZINC000098087071    0.0700
@<TRIPOS>BOND
1     1     2     2
2     1     25    1
3     1     26    1
4     2     3     1
5     2     27    1
6     3     4     1
7     3     28    1
8     3     29    1
9     4     5     1
10    5     21    ar
11    5     6     ar
12    6     7     1
13    6     8     ar
14    8     9     ar
15    8     30    1
16    9     10    1
17    9     20    ar
18    10    11    2
19    10    31    1
20    11    18    1
21    11    12    1
22    12    13    2
23    12    14    1
24    14    15    1
25    15    16    2
26    15    17    am
27    17    18    am
28    17    32    1
29    18    19    2
30    20    21    ar
31    20    33    1
32    21    22    1
33    22    23    1
34    23    24    1
35    23    34    1
36    23    35    1
37    24    36    1
38    24    37    1
39    24    38    1
@<TRIPOS>SUBSTRUCTURE
1   ZINC000098087071 1     RESIDUE    1   A     ZIN   1

@<TRIPOS>MOLECULE
ZINC000098087071
39    40    1     0     0
SMALL
USER_CHARGES
@<TRIPOS>ATOM
1      C1     -0.6770    0.4869   -0.4273 C.2      1 ZINC000098087071   -0.1700
2      C2     -0.5522   -0.7529   -0.0230 C.2      1 ZINC000098087071   -0.1500
3      C3      0.7806   -1.4486   -0.1265 C.3      1 ZINC000098087071    0.0900
4      O4      1.0484   -2.1483    1.0904 O.3      1 ZINC000098087071   -0.3100
5      C5      2.2182   -2.8328    1.1630 C.ar     1 ZINC000098087071    0.1300
6      C6      2.2708   -4.1597    0.7516 C.ar     1 ZINC000098087071   -0.1000
7      I7      0.5445   -5.0965    0.0225 I        1 ZINC000098087071   -0.0100
8      C8      3.4540   -4.8598    0.8216 C.ar     1 ZINC000098087071   -0.0200
9      C9      4.6104   -4.2333    1.3097 C.ar     1 ZINC000098087071   -0.0800
10     C10     5.8698   -4.9733    1.3853 C.2      1 ZINC000098087071    0.1300
11     C11     6.2833   -5.7444    0.3158 C.2      1 ZINC000098087071   -0.2800
12     C12     5.6075   -5.6708   -0.9947 C.2      1 ZINC000098087071    0.5600
13     O13     4.6628   -4.9249   -1.1697 O.2      1 ZINC000098087071   -0.4600
14     N14     6.0670   -6.4533   -1.9929 N.am     1 ZINC000098087071   -0.6600
15     C15     7.1070   -7.2796   -1.8140 C.2      1 ZINC000098087071    0.7200
16     O16     7.4706   -7.9578   -2.7546 O.2      1 ZINC000098087071   -0.5200
17     N17     7.7678   -7.3982   -0.6540 N.am     1 ZINC000098087071   -0.6600
18     C18     7.4244   -6.6740    0.4311 C.2      1 ZINC000098087071    0.5700
19     O19     8.0323   -6.7905    1.4782 O.2      1 ZINC000098087071   -0.4800
20     C20     4.5547   -2.8936    1.7249 C.ar     1 ZINC000098087071   -0.1400
21     C21     3.3655   -2.2001    1.6450 C.ar     1 ZINC000098087071    0.1100
22     O22     3.3078   -0.9019    2.0459 O.3      1 ZINC000098087071   -0.3000
23     C23     4.5168   -0.3208    2.5387 C.3      1 ZINC000098087071    0.0500
24     C24     4.2578    1.1332    2.9384 C.3      1 ZINC000098087071   -0.1500
25     H25     0.1753    1.0104   -0.8347 H        1 ZINC000098087071    0.1000
26     H26    -1.6332    0.9841   -0.3573 H        1 ZINC000098087071    0.1100
27     H27    -1.4044   -1.2764    0.3844 H        1 ZINC000098087071    0.1200
28     H28     0.7576   -2.1565   -0.9550 H        1 ZINC000098087071    0.0700
29     H29     1.5633   -0.7103   -0.3009 H        1 ZINC000098087071    0.0600
30     H30     3.4919   -5.8905    0.5014 H        1 ZINC000098087071    0.1300
31     H31     6.4765   -4.9170    2.2770 H        1 ZINC000098087071    0.1700
32     H32     5.6345   -6.4172   -2.8604 H        1 ZINC000098087071    0.4400
33     H33     8.5127   -8.0167   -0.5943 H        1 ZINC000098087071    0.4400
34     H34     5.4416   -2.4062    2.1019 H        1 ZINC000098087071    0.1500
35     H35     4.8610   -0.8808    3.4082 H        1 ZINC000098087071    0.0700
36     H36     5.2792   -0.3534    1.7604 H        1 ZINC000098087071    0.0600
37     H37     5.1799    1.5765    3.3143 H        1 ZINC000098087071    0.0800
38     H38     3.9136    1.6932    2.0689 H        1 ZINC000098087071    0.0700
39     H39     3.4954    1.1658    3.7167 H        1 ZINC000098087071    0.0700
@<TRIPOS>BOND
1     1     2     2
2     1     25    1
3     1     26    1
4     2     3     1
5     2     27    1
6     3     4     1
7     3     28    1
8     3     29    1
9     4     5     1
10    5     21    ar
11    5     6     ar
12    6     7     1
13    6     8     ar
14    8     9     ar
15    8     30    1
16    9     10    1
17    9     20    ar
18    10    11    2
19    10    31    1
20    11    18    1
21    11    12    1
22    12    13    2
23    12    14    am
24    14    15    am
25    14    32    1
26    15    16    2
27    15    17    am
28    17    18    am
29    17    33    1
30    18    19    2
31    20    21    ar
32    20    34    1
33    21    22    1
34    22    23    1
35    23    24    1
36    23    35    1
37    23    36    1
38    24    37    1
39    24    38    1
40    24    39    1
@<TRIPOS>SUBSTRUCTURE
1   ZINC000098087071 1     RESIDUE    1   A     ZIN   1
@<TRIPOS>MOLECULE
ZINC000009684031
52    54    1     0     0
SMALL
USER_CHARGES
@<TRIPOS>ATOM
1      C1     -0.0173    1.4248    0.0099 C.3      1 ZINC000009684031    0.0300
2      O2      0.0021   -0.0041    0.0020 O.3      1 ZINC000009684031   -0.3200
3      C3      0.6066   -0.6080   -1.0572 C.ar     1 ZINC000009684031   -0.0200
4      C4      1.1725    0.1596   -2.0615 C.ar     1 ZINC000009684031   -0.1100
5      C5      1.7874   -0.4523   -3.1380 C.ar     1 ZINC000009684031   -0.2600
6      C6      1.8386   -1.8374   -3.2147 C.ar     1 ZINC000009684031    0.2900
7      N7      2.4613   -2.4552   -4.3049 N.pl3    1 ZINC000009684031   -1.0900
8      S8      3.1373   -1.5340   -5.5035 S.o2     1 ZINC000009684031    2.6300
9      O9      2.0630   -0.8643   -6.1490 O.2      1 ZINC000009684031   -1.0200
10     O10     4.2362   -0.8525   -4.9144 O.2      1 ZINC000009684031   -1.0400
11     C11     3.8185   -2.6425   -6.6918 C.2      1 ZINC000009684031   -0.6500
12     C12     5.0642   -3.1491   -6.7006 C.2      1 ZINC000009684031    0.1400
13     C13     6.1348   -2.8615   -5.6797 C.3      1 ZINC000009684031   -0.1200
14     N14     5.2004   -3.9662   -7.7849 N.pl3    1 ZINC000009684031   -0.5500
15     C15     4.0538   -4.0014   -8.4901 C.2      1 ZINC000009684031    0.0400
16     C16     3.8182   -4.7930   -9.7507 C.3      1 ZINC000009684031   -0.0800
17     C17     3.1376   -3.2013   -7.8648 C.2      1 ZINC000009684031   -0.1300
18     C18     1.7507   -2.9453   -8.2885 C.2      1 ZINC000009684031    0.6200
19     O19     0.8514   -3.6613   -7.8912 O.2      1 ZINC000009684031   -0.5300
20     N20     1.4779   -1.9175   -9.1166 N.am     1 ZINC000009684031   -0.6000
21     C21     2.4649   -0.9817   -9.6750 C.3      1 ZINC000009684031    0.1000
22     C22     1.6928    0.0358  -10.5410 C.3      1 ZINC000009684031   -0.1300
23     C23     0.2530   -0.0422   -9.9681 C.3      1 ZINC000009684031   -0.1300
24     C24     0.1412   -1.5492   -9.6176 C.3      1 ZINC000009684031    0.1100
25     C25     1.2722   -2.6099   -2.2093 C.ar     1 ZINC000009684031   -0.2400
26     C26     0.6613   -1.9969   -1.1282 C.ar     1 ZINC000009684031    0.1400
27     O27     0.1059   -2.7512   -0.1425 O.3      1 ZINC000009684031   -0.3200
28     C28     0.1890   -4.1705   -0.2867 C.3      1 ZINC000009684031    0.0300
29     H29     1.0053    1.8021    0.0021 H        1 ZINC000009684031    0.0400
30     H30    -0.5445    1.7859   -0.8732 H        1 ZINC000009684031    0.0400
31     H31    -0.5275    1.7763    0.9067 H        1 ZINC000009684031    0.0800
32     H32     1.1331    1.2374   -2.0039 H        1 ZINC000009684031    0.1200
33     H33     2.2282    0.1480   -3.9202 H        1 ZINC000009684031    0.1000
34     H34     6.0720   -3.5908   -4.8720 H        1 ZINC000009684031    0.0800
35     H35     7.1147   -2.9265   -6.1526 H        1 ZINC000009684031    0.0700
36     H36     5.9920   -1.8591   -5.2760 H        1 ZINC000009684031    0.1200
37     H37     6.0077   -4.4522   -8.0148 H        1 ZINC000009684031    0.4100
38     H38     3.4409   -5.7826   -9.4930 H        1 ZINC000009684031    0.0800
39     H39     3.0875   -4.2763  -10.3729 H        1 ZINC000009684031    0.0800
40     H40     4.7556   -4.8926  -10.2977 H        1 ZINC000009684031    0.0700
41     H41     2.9829   -0.4639   -8.8677 H        1 ZINC000009684031    0.0700
42     H42     3.1824   -1.5237  -10.2910 H        1 ZINC000009684031    0.0600
43     H43     2.1034    1.0379  -10.4169 H        1 ZINC000009684031    0.0800
44     H44     1.7072   -0.2609  -11.5897 H        1 ZINC000009684031    0.0700
45     H45     0.1527    0.5780   -9.0774 H        1 ZINC000009684031    0.0800
46     H46    -0.4831    0.2375  -10.7219 H        1 ZINC000009684031    0.0800
47     H47    -0.1092   -2.1280  -10.5067 H        1 ZINC000009684031    0.0600
48     H48    -0.6072   -1.7034   -8.8403 H        1 ZINC000009684031    0.0800
49     H49     1.3113   -3.6875   -2.2686 H        1 ZINC000009684031    0.1300
50     H50     1.2360   -4.4705   -0.3304 H        1 ZINC000009684031    0.0500
51     H51    -0.2913   -4.6511    0.5656 H        1 ZINC000009684031    0.0900
52     H52    -0.3141   -4.4724   -1.2053 H        1 ZINC000009684031    0.0500
@<TRIPOS>BOND
1     1     2     1
2     1     29    1
3     1     30    1
4     1     31    1
5     2     3     1
6     3     26    ar
7     3     4     ar
8     4     5     ar
9     4     32    1
10    5     6     ar
11    5     33    1
12    6     7     1
13    6     25    ar
14    7     8     1
15    8     9     2
16    8     10    2
17    8     11    1
18    11    17    1
19    11    12    2
20    12    13    1
21    12    14    1
22    13    34    1
23    13    35    1
24    13    36    1
25    14    15    1
26    14    37    1
27    15    16    1
28    15    17    2
29    16    38    1
30    16    39    1
31    16    40    1
32    17    18    1
33    18    19    2
34    18    20    am
35    20    24    1
36    20    21    1
37    21    22    1
38    21    41    1
39    21    42    1
40    22    23    1
41    22    43    1
42    22    44    1
43    23    24    1
44    23    45    1
45    23    46    1
46    24    47    1
47    24    48    1
48    25    26    ar
49    25    49    1
50    26    27    1
51    27    28    1
52    28    50    1
53    28    51    1
54    28    52    1
@<TRIPOS>SUBSTRUCTURE
1   ZINC000009684031 1     RESIDUE    1   A     ZIN   1

@<TRIPOS>MOLECULE
ZINC000009684031
53    55    1     0     0
SMALL
USER_CHARGES
@<TRIPOS>ATOM
1      C1     -0.0173    1.4248    0.0099 C.3      1 ZINC000009684031    0.0200
2      O2      0.0021   -0.0041    0.0020 O.3      1 ZINC000009684031   -0.3100
3      C3     -1.2020   -0.6384    0.0101 C.ar     1 ZINC000009684031    0.0900
4      C4     -2.3736    0.1001    0.0195 C.ar     1 ZINC000009684031   -0.1500
5      C5     -3.5975   -0.5427    0.0272 C.ar     1 ZINC000009684031   -0.1500
6      C6     -3.6548   -1.9297    0.0261 C.ar     1 ZINC000009684031    0.1500
7      N7     -4.8943   -2.5788    0.0340 N.am     1 ZINC000009684031   -1.0500
8      S8     -6.1053   -2.0635   -0.9712 S.o2     1 ZINC000009684031    2.7100
9      O9     -7.2061   -2.9351   -0.7530 O.2      1 ZINC000009684031   -0.9400
10     O10    -6.1866   -0.6538   -0.8115 O.2      1 ZINC000009684031   -0.9500
11     C11    -5.5665   -2.3467   -2.6247 C.2      1 ZINC000009684031   -0.7200
12     C12    -4.8758   -1.4960   -3.4045 C.2      1 ZINC000009684031    0.1700
13     C13    -4.4228   -0.1145   -3.0081 C.3      1 ZINC000009684031   -0.1400
14     N14    -4.6523   -2.0883   -4.6132 N.pl3    1 ZINC000009684031   -0.5400
15     C15    -5.1905   -3.3225   -4.6353 C.2      1 ZINC000009684031    0.0700
16     C16    -5.1487   -4.2818   -5.7968 C.3      1 ZINC000009684031   -0.0900
17     C17    -5.7765   -3.5596   -3.4225 C.2      1 ZINC000009684031   -0.1300
18     C18    -6.4834   -4.7821   -3.0049 C.2      1 ZINC000009684031    0.6100
19     O19    -5.8698   -5.6881   -2.4739 O.2      1 ZINC000009684031   -0.5300
20     N20    -7.8103   -4.8971   -3.2113 N.am     1 ZINC000009684031   -0.6000
21     C21    -8.6696   -3.8864   -3.8450 C.3      1 ZINC000009684031    0.1000
22     C22   -10.1095   -4.4418   -3.8411 C.3      1 ZINC000009684031   -0.1300
23     C23   -10.0746   -5.4900   -2.6977 C.3      1 ZINC000009684031   -0.1300
24     C24    -8.6393   -6.0598   -2.8448 C.3      1 ZINC000009684031    0.1100
25     C25    -2.4818   -2.6730    0.0167 C.ar     1 ZINC000009684031   -0.1800
26     C26    -1.2559   -2.0291    0.0032 C.ar     1 ZINC000009684031    0.1200
27     O27    -0.1059   -2.7548   -0.0061 O.3      1 ZINC000009684031   -0.3000
28     C28    -0.2368   -4.1778   -0.0010 C.3      1 ZINC000009684031    0.0200
29     H29     1.0053    1.8021    0.0021 H        1 ZINC000009684031    0.1000
30     H30    -0.5445    1.7859   -0.8732 H        1 ZINC000009684031    0.0600
31     H31    -0.5275    1.7763    0.9067 H        1 ZINC000009684031    0.0600
32     H32    -2.3310    1.1792    0.0211 H        1 ZINC000009684031    0.1400
33     H33    -4.5101    0.0348    0.0345 H        1 ZINC000009684031    0.1600
34     H34    -5.0443   -3.3307    0.6282 H        1 ZINC000009684031    0.4300
35     H35    -3.4318   -0.1723   -2.5579 H        1 ZINC000009684031    0.0900
36     H36    -4.3839    0.5226   -3.8916 H        1 ZINC000009684031    0.0800
37     H37    -5.1250    0.3055   -2.2880 H        1 ZINC000009684031    0.1200
38     H38    -4.1741   -1.6789   -5.3511 H        1 ZINC000009684031    0.4200
39     H39    -4.2566   -4.9037   -5.7225 H        1 ZINC000009684031    0.0800
40     H40    -6.0357   -4.9150   -5.7772 H        1 ZINC000009684031    0.0800
41     H41    -5.1236   -3.7205   -6.7309 H        1 ZINC000009684031    0.0800
42     H42    -8.6293   -2.9569   -3.2772 H        1 ZINC000009684031    0.0700
43     H43    -8.3425   -3.7117   -4.8700 H        1 ZINC000009684031    0.0700
44     H44   -10.8269   -3.6519   -3.6185 H        1 ZINC000009684031    0.0800
45     H45   -10.3418   -4.9178   -4.7938 H        1 ZINC000009684031    0.0800
46     H46   -10.2120   -5.0139   -1.7269 H        1 ZINC000009684031    0.0800
47     H47   -10.8205   -6.2684   -2.8584 H        1 ZINC000009684031    0.0900
48     H48    -8.6098   -6.8159   -3.6294 H        1 ZINC000009684031    0.0700
49     H49    -8.2993   -6.4806   -1.8985 H        1 ZINC000009684031    0.0800
50     H50    -2.5256   -3.7521    0.0162 H        1 ZINC000009684031    0.1400
51     H51     0.7533   -4.6337   -0.0094 H        1 ZINC000009684031    0.1000
52     H52    -0.7730   -4.4902    0.8951 H        1 ZINC000009684031    0.0600
53     H53    -0.7903   -4.4949   -0.8848 H        1 ZINC000009684031    0.0600
@<TRIPOS>BOND
1     1     2     1
2     1     29    1
3     1     30    1
4     1     31    1
5     2     3     1
6     3     26    ar
7     3     4     ar
8     4     5     ar
9     4     32    1
10    5     6     ar
11    5     33    1
12    6     7     1
13    6     25    ar
14    7     8     am
15    7     34    1
16    8     9     2
17    8     10    2
18    8     11    1
19    11    17    1
20    11    12    2
21    12    13    1
22    12    14    1
23    13    35    1
24    13    36    1
25    13    37    1
26    14    15    1
27    14    38    1
28    15    16    1
29    15    17    2
30    16    39    1
31    16    40    1
32    16    41    1
33    17    18    1
34    18    19    2
35    18    20    am
36    20    24    1
37    20    21    1
38    21    22    1
39    21    42    1
40    21    43    1
41    22    23    1
42    22    44    1
43    22    45    1
44    23    24    1
45    23    46    1
46    23    47    1
47    24    48    1
48    24    49    1
49    25    26    ar
50    25    50    1
51    26    27    1
52    27    28    1
53    28    51    1
54    28    52    1
55    28    53    1
@<TRIPOS>SUBSTRUCTURE
1   ZINC000009684031 1     RESIDUE    1   A     ZIN   1
@<TRIPOS>MOLECULE
ZINC000011795975
47    49    1     0     0
SMALL
USER_CHARGES
@<TRIPOS>ATOM
1      C1     -0.0173    1.4248    0.0099 C.3      1 ZINC000011795975    0.0200
2      O2      0.0021   -0.0041    0.0020 O.3      1 ZINC000011795975   -0.3100
3      C3      0.6062   -0.6075   -1.0564 C.ar     1 ZINC000011795975    0.1400
4      C4      1.1727    0.1587   -2.0618 C.ar     1 ZINC000011795975   -0.2000
5      C5      1.7870   -0.4565   -3.1372 C.ar     1 ZINC000011795975   -0.0200
6      C6      1.8372   -1.8356   -3.2121 C.ar     1 ZINC000011795975   -0.6200
7      S7      2.6209   -2.6134   -4.5852 S.o2     1 ZINC000011795975    2.6400
8      O8      2.0582   -3.9145   -4.6843 O.2      1 ZINC000011795975   -1.0200
9      O9      2.5936   -1.6718   -5.6491 O.2      1 ZINC000011795975   -1.0200
10     N10     4.2145   -2.8222   -4.1864 N.pl3    1 ZINC000011795975   -1.1000
11     C11     5.0862   -3.4201   -5.0923 C.2      1 ZINC000011795975    0.4400
12     C12     4.7678   -3.8727   -6.3365 C.2      1 ZINC000011795975   -0.4300
13     C13     5.9288   -4.3984   -6.9104 C.2      1 ZINC000011795975    0.1100
14     C14     6.0356   -5.0088   -8.2841 C.3      1 ZINC000011795975   -0.0700
15     N15     6.9070   -4.2697   -6.0511 N.2      1 ZINC000011795975   -0.3600
16     N16     6.4047   -3.6516   -4.8990 N.pl3    1 ZINC000011795975   -0.3900
17     C17     7.1701   -3.3222   -3.6940 C.3      1 ZINC000011795975    0.2000
18     H18     6.5132   -2.8584   -2.9581 H        1 ZINC000011795975    0.1300
19     C19     7.7840   -4.6041   -3.1045 C.3      1 ZINC000011795975   -0.1300
20     C20     8.8310   -4.1520   -2.0541 C.3      1 ZINC000011795975   -0.5800
21     S21     9.6684   -2.7582   -2.8999 S.o2     1 ZINC000011795975    2.3900
22     O22     9.8453   -1.6881   -1.9819 O.2      1 ZINC000011795975   -0.9400
23     O23    10.7805   -3.2523   -3.6336 O.2      1 ZINC000011795975   -0.9400
24     C24     8.3118   -2.3510   -4.0546 C.3      1 ZINC000011795975   -0.6000
25     C25     1.2740   -2.6064   -2.2116 C.ar     1 ZINC000011795975   -0.0700
26     C26     0.6617   -1.9965   -1.1290 C.ar     1 ZINC000011795975    0.0700
27     O27     0.1074   -2.7530   -0.1443 O.3      1 ZINC000011795975   -0.3100
28     C28     0.1928   -4.1720   -0.2904 C.3      1 ZINC000011795975    0.0200
29     H29     1.0053    1.8021    0.0021 H        1 ZINC000011795975    0.0600
30     H30    -0.5445    1.7859   -0.8732 H        1 ZINC000011795975    0.0600
31     H31    -0.5275    1.7763    0.9067 H        1 ZINC000011795975    0.1000
32     H32     1.1343    1.2366   -2.0060 H        1 ZINC000011795975    0.1400
33     H33     2.2283    0.1421   -3.9204 H        1 ZINC000011795975    0.1400
34     H34     3.7919   -3.8328   -6.7975 H        1 ZINC000011795975    0.1200
35     H35     6.2852   -4.2330   -9.0079 H        1 ZINC000011795975    0.0700
36     H36     6.8157   -5.7700   -8.2838 H        1 ZINC000011795975    0.0600
37     H37     5.0831   -5.4648   -8.5541 H        1 ZINC000011795975    0.0700
38     H38     7.0094   -5.2030   -2.6257 H        1 ZINC000011795975    0.1000
39     H39     8.2698   -5.1813   -3.8913 H        1 ZINC000011795975    0.1000
40     H40     8.3415   -3.8127   -1.1412 H        1 ZINC000011795975    0.1400
41     H41     9.5365   -4.9550   -1.8405 H        1 ZINC000011795975    0.1400
42     H42     8.6321   -2.5069   -5.0848 H        1 ZINC000011795975    0.1500
43     H43     7.9880   -1.3203   -3.9099 H        1 ZINC000011795975    0.1400
44     H44     1.3146   -3.6839   -2.2726 H        1 ZINC000011795975    0.1500
45     H45    -0.2869   -4.6545    0.5611 H        1 ZINC000011795975    0.1000
46     H46    -0.3098   -4.4735   -1.2094 H        1 ZINC000011795975    0.0600
47     H47     1.2403   -4.4703   -0.3345 H        1 ZINC000011795975    0.0600
@<TRIPOS>BOND
1     1     2     1
2     1     29    1
3     1     30    1
4     1     31    1
5     2     3     1
6     3     26    ar
7     3     4     ar
8     4     5     ar
9     4     32    1
10    5     6     ar
11    5     33    1
12    6     7     1
13    6     25    ar
14    7     8     2
15    7     9     2
16    7     10    1
17    10    11    1
18    11    16    1
19    11    12    2
20    12    13    1
21    12    34    1
22    13    14    1
23    13    15    2
24    14    35    1
25    14    36    1
26    14    37    1
27    15    16    1
28    16    17    1
29    17    18    1
30    17    24    1
31    17    19    1
32    19    20    1
33    19    38    1
34    19    39    1
35    20    21    1
36    20    40    1
37    20    41    1
38    21    22    2
39    21    23    2
40    21    24    1
41    24    42    1
42    24    43    1
43    25    26    ar
44    25    44    1
45    26    27    1
46    27    28    1
47    28    45    1
48    28    46    1
49    28    47    1
@<TRIPOS>SUBSTRUCTURE
1   ZINC000011795975 1     RESIDUE    1   A     ZIN   1

@<TRIPOS>MOLECULE
ZINC000011795975
48    50    1     0     0
SMALL
USER_CHARGES
@<TRIPOS>ATOM
1      C1      0.2499    1.2896    0.3726 C.3      1 ZINC000011795975    0.0200
2      O2      0.2065   -0.1353    0.2736 O.3      1 ZINC000011795975   -0.3000
3      C3      0.7619   -0.6944   -0.8346 C.ar     1 ZINC000011795975    0.1600
4      C4      1.3408    0.1102   -1.8023 C.ar     1 ZINC000011795975   -0.2000
5      C5      1.9055   -0.4600   -2.9284 C.ar     1 ZINC000011795975   -0.0100
6      C6      1.8936   -1.8323   -3.0918 C.ar     1 ZINC000011795975   -0.6800
7      S7      2.6144   -2.5527   -4.5293 S.o2     1 ZINC000011795975    2.7000
8      O8      2.1018   -3.8752   -4.6154 O.2      1 ZINC000011795975   -0.9300
9      O9      2.4750   -1.5958   -5.5705 O.2      1 ZINC000011795975   -0.9400
10     N10     4.2388   -2.6986   -4.2426 N.am     1 ZINC000011795975   -1.0400
11     C11     4.6958   -3.5625   -3.2513 C.2      1 ZINC000011795975    0.3400
12     C12     3.9441   -4.4626   -2.5592 C.2      1 ZINC000011795975   -0.3100
13     C13     4.7878   -5.1253   -1.6633 C.2      1 ZINC000011795975    0.1100
14     C14     4.3751   -6.2060   -0.6975 C.3      1 ZINC000011795975   -0.0800
15     N15     5.9972   -4.6472   -1.8069 N.2      1 ZINC000011795975   -0.2800
16     N16     5.9684   -3.6646   -2.8046 N.pl3    1 ZINC000011795975   -0.3700
17     C17     7.1126   -2.8801   -3.2751 C.3      1 ZINC000011795975    0.1700
18     H18     6.7869   -2.1849   -4.0489 H        1 ZINC000011795975    0.1200
19     C19     7.7216   -2.0968   -2.0989 C.3      1 ZINC000011795975   -0.1300
20     C20     9.0960   -1.5671   -2.5830 C.3      1 ZINC000011795975   -0.5900
21     S21     9.7828   -3.0069   -3.4856 S.o2     1 ZINC000011795975    2.4000
22     O22    10.3727   -2.5636   -4.7001 O.2      1 ZINC000011795975   -0.9300
23     O23    10.5334   -3.8119   -2.5868 O.2      1 ZINC000011795975   -0.9200
24     C24     8.1888   -3.8245   -3.8465 C.3      1 ZINC000011795975   -0.6200
25     C25     1.3178   -2.6414   -2.1295 C.ar     1 ZINC000011795975   -0.0700
26     C26     0.7550   -2.0769   -0.9965 C.ar     1 ZINC000011795975    0.0900
27     O27     0.1883   -2.8711   -0.0491 O.3      1 ZINC000011795975   -0.3000
28     C28     0.2084   -4.2801   -0.2870 C.3      1 ZINC000011795975    0.0200
29     H29     1.2877    1.6229    0.3651 H        1 ZINC000011795975    0.0600
30     H30    -0.2788    1.7288   -0.4734 H        1 ZINC000011795975    0.0600
31     H31    -0.2260    1.6040    1.3014 H        1 ZINC000011795975    0.1100
32     H32     1.3508    1.1829   -1.6773 H        1 ZINC000011795975    0.1500
33     H33     2.3566    0.1685   -3.6821 H        1 ZINC000011795975    0.1400
34     H34     4.8719   -2.1820   -4.7653 H        1 ZINC000011795975    0.4300
35     H35     2.8847   -4.6337   -2.6807 H        1 ZINC000011795975    0.1600
36     H36     4.4732   -7.1795   -1.1779 H        1 ZINC000011795975    0.0800
37     H37     5.0156   -6.1697    0.1838 H        1 ZINC000011795975    0.0800
38     H38     3.3382   -6.0506   -0.3997 H        1 ZINC000011795975    0.0800
39     H39     7.0734   -1.2625   -1.8306 H        1 ZINC000011795975    0.1100
40     H40     7.8565   -2.7560   -1.2414 H        1 ZINC000011795975    0.1100
41     H41     8.9689   -0.7159   -3.2518 H        1 ZINC000011795975    0.1400
42     H42     9.7293   -1.3037   -1.7358 H        1 ZINC000011795975    0.1500
43     H43     8.1418   -4.7960   -3.3546 H        1 ZINC000011795975    0.1600
44     H44     8.0565   -3.9374   -4.9226 H        1 ZINC000011795975    0.1500
45     H45     1.3098   -3.7135   -2.2596 H        1 ZINC000011795975    0.1600
46     H46    -0.3256   -4.5002   -1.2114 H        1 ZINC000011795975    0.0600
47     H47     1.2406   -4.6191   -0.3741 H        1 ZINC000011795975    0.0600
48     H48    -0.2745   -4.7956    0.5432 H        1 ZINC000011795975    0.1100
@<TRIPOS>BOND
1     1     2     1
2     1     29    1
3     1     30    1
4     1     31    1
5     2     3     1
6     3     26    ar
7     3     4     ar
8     4     5     ar
9     4     32    1
10    5     6     ar
11    5     33    1
12    6     7     1
13    6     25    ar
14    7     8     2
15    7     9     2
16    7     10    am
17    10    11    1
18    10    34    1
19    11    16    1
20    11    12    2
21    12    13    1
22    12    35    1
23    13    14    1
24    13    15    2
25    14    36    1
26    14    37    1
27    14    38    1
28    15    16    1
29    16    17    1
30    17    18    1
31    17    24    1
32    17    19    1
33    19    20    1
34    19    39    1
35    19    40    1
36    20    21    1
37    20    41    1
38    20    42    1
39    21    22    2
40    21    23    2
41    21    24    1
42    24    43    1
43    24    44    1
44    25    26    ar
45    25    45    1
46    26    27    1
47    27    28    1
48    28    46    1
49    28    47    1
50    28    48    1
@<TRIPOS>SUBSTRUCTURE
1   ZINC000011795975 1     RESIDUE    1   A     ZIN   1
@<TRIPOS>MOLECULE
ZINC000012236011
49    51    1     0     0
SMALL
USER_CHARGES
@<TRIPOS>ATOM
1      C1     -0.6167    1.5067   -2.1654 C.3      1 ZINC000012236011   -0.1700
2      C2     -0.6036   -0.0002   -2.1694 C.2      1 ZINC000012236011    0.5000
3      O3     -1.1365   -0.6089   -3.0732 O.2      1 ZINC000012236011   -0.5400
4      N4      0.0001   -0.6716   -1.1688 N.am     1 ZINC000012236011   -0.6600
5      C5     -0.0709   -2.0705   -1.1208 C.ar     1 ZINC000012236011    0.0100
6      C6     -0.1518   -2.7198    0.1039 C.ar     1 ZINC000012236011   -0.0900
7      C7     -0.2212   -4.0978    0.1515 C.ar     1 ZINC000012236011   -0.1700
8      C8     -0.2107   -4.8347   -1.0258 C.ar     1 ZINC000012236011    0.2800
9      N9     -0.2815   -6.2310   -0.9778 N.pl3    1 ZINC000012236011   -1.0900
10     S10    -0.2689   -7.1094   -2.3815 S.o2     1 ZINC000012236011    2.6400
11     O11    -1.4788   -6.7999   -3.0594 O.2      1 ZINC000012236011   -1.0300
12     O12     1.0156   -6.9231   -2.9600 O.2      1 ZINC000012236011   -1.0400
13     C13    -0.3707   -8.8104   -1.9333 C.2      1 ZINC000012236011   -0.7500
14     C14     0.6751   -9.6315   -1.6820 C.2      1 ZINC000012236011    0.2000
15     C15     2.1333   -9.2548   -1.7355 C.3      1 ZINC000012236011   -0.1300
16     N16     0.1784  -10.8480   -1.3750 N.pl3    1 ZINC000012236011   -0.3700
17     C17     0.9620  -12.0379   -1.0337 C.3      1 ZINC000012236011    0.1600
18     H18     2.0266  -11.8074   -1.0735 H        1 ZINC000012236011    0.1300
19     C19     0.6337  -13.1825   -2.0084 C.3      1 ZINC000012236011   -0.1300
20     C20     1.1969  -14.4976   -1.4341 C.3      1 ZINC000012236011   -0.5900
21     S21     1.2019  -14.2615    0.3797 S.o2     1 ZINC000012236011    2.4000
22     O22     0.2300  -15.1149    0.9684 O.2      1 ZINC000012236011   -0.9300
23     O23     2.5414  -14.2817    0.8536 O.2      1 ZINC000012236011   -0.9300
24     C24     0.5794  -12.5372    0.3834 C.3      1 ZINC000012236011   -0.6000
25     N25    -1.2189  -10.7721   -1.4397 N.2      1 ZINC000012236011   -0.3100
26     C26    -1.5470   -9.5490   -1.7685 C.2      1 ZINC000012236011    0.1700
27     C27    -2.9498   -9.0286   -1.9491 C.3      1 ZINC000012236011   -0.1000
28     C28    -0.1302   -4.1850   -2.2507 C.ar     1 ZINC000012236011   -0.2500
29     C29    -0.0660   -2.8067   -2.2980 C.ar     1 ZINC000012236011   -0.0500
30     H30    -1.5024    1.8610   -1.6380 H        1 ZINC000012236011    0.0900
31     H31     0.2774    1.8764   -1.6632 H        1 ZINC000012236011    0.0800
32     H32    -0.6344    1.8727   -3.1919 H        1 ZINC000012236011    0.0900
33     H33     0.4837   -0.1866   -0.4819 H        1 ZINC000012236011    0.4000
34     H34    -0.1600   -2.1468    1.0194 H        1 ZINC000012236011    0.1100
35     H35    -0.2834   -4.6028    1.1041 H        1 ZINC000012236011    0.1100
36     H36     2.4530   -8.9000   -0.7556 H        1 ZINC000012236011    0.0900
37     H37     2.7237  -10.1268   -2.0166 H        1 ZINC000012236011    0.0700
38     H38     2.2777   -8.4650   -2.4727 H        1 ZINC000012236011    0.1300
39     H39    -0.4468  -13.2663   -2.1246 H        1 ZINC000012236011    0.1000
40     H40     1.0900  -12.9807   -2.9776 H        1 ZINC000012236011    0.1000
41     H41     0.5538  -15.3350   -1.7051 H        1 ZINC000012236011    0.1500
42     H42     2.2110  -14.6654   -1.7968 H        1 ZINC000012236011    0.1400
43     H43     1.0798  -11.9468    1.1509 H        1 ZINC000012236011    0.1500
44     H44    -0.5017  -12.5164    0.5213 H        1 ZINC000012236011    0.1500
45     H45    -3.3201   -8.6449   -0.9984 H        1 ZINC000012236011    0.0800
46     H46    -2.9478   -8.2275   -2.6882 H        1 ZINC000012236011    0.1200
47     H47    -3.5960   -9.8370   -2.2912 H        1 ZINC000012236011    0.0700
48     H48    -0.1216   -4.7578   -3.1662 H        1 ZINC000012236011    0.1000
49     H49    -0.0038   -2.3014   -3.2505 H        1 ZINC000012236011    0.1200
@<TRIPOS>BOND
1     1     2     1
2     1     30    1
3     1     31    1
4     1     32    1
5     2     3     2
6     2     4     am
7     4     5     1
8     4     33    1
9     5     29    ar
10    5     6     ar
11    6     7     ar
12    6     34    1
13    7     8     ar
14    7     35    1
15    8     9     1
16    8     28    ar
17    9     10    1
18    10    11    2
19    10    12    2
20    10    13    1
21    13    26    1
22    13    14    2
23    14    15    1
24    14    16    1
25    15    36    1
26    15    37    1
27    15    38    1
28    16    17    1
29    16    25    1
30    17    18    1
31    17    24    1
32    17    19    1
33    19    20    1
34    19    39    1
35    19    40    1
36    20    21    1
37    20    41    1
38    20    42    1
39    21    22    2
40    21    23    2
41    21    24    1
42    24    43    1
43    24    44    1
44    25    26    2
45    26    27    1
46    27    45    1
47    27    46    1
48    27    47    1
49    28    29    ar
50    28    48    1
51    29    49    1
@<TRIPOS>SUBSTRUCTURE
1   ZINC000012236011 1     RESIDUE    1   A     ZIN   1

@<TRIPOS>MOLECULE
ZINC000012236011
50    52    1     0     0
SMALL
USER_CHARGES
@<TRIPOS>ATOM
1      C1      7.8540   -6.0565   -1.1110 C.3      1 ZINC000012236011   -0.1700
2      C2      6.3596   -5.8816   -1.0248 C.2      1 ZINC000012236011    0.5100
3      O3      5.8942   -4.8815   -0.5205 O.2      1 ZINC000012236011   -0.5300
4      N4      5.5404   -6.8365   -1.5080 N.am     1 ZINC000012236011   -0.6800
5      C5      4.1537   -6.7202   -1.3414 C.ar     1 ZINC000012236011    0.1300
6      C6      3.5507   -5.4706   -1.3939 C.ar     1 ZINC000012236011   -0.1000
7      C7      2.1847   -5.3557   -1.2294 C.ar     1 ZINC000012236011   -0.1100
8      C8      1.4137   -6.4903   -1.0117 C.ar     1 ZINC000012236011    0.1300
9      N9      0.0296   -6.3741   -0.8454 N.am     1 ZINC000012236011   -1.0600
10     S10    -0.9898   -7.4064   -1.6439 S.o2     1 ZINC000012236011    2.7200
11     O11    -0.5089   -8.7197   -1.3923 O.2      1 ZINC000012236011   -0.9500
12     O12    -2.3111   -6.9890   -1.3290 O.2      1 ZINC000012236011   -0.9600
13     C13    -0.7755   -7.1201   -3.3692 C.2      1 ZINC000012236011   -0.8200
14     C14    -1.3671   -6.1420   -4.0934 C.2      1 ZINC000012236011    0.2200
15     C15    -2.3257   -5.1042   -3.5689 C.3      1 ZINC000012236011   -0.1500
16     N16    -0.9448   -6.2624   -5.3695 N.pl3    1 ZINC000012236011   -0.3500
17     C17    -1.3371   -5.4061   -6.4916 C.3      1 ZINC000012236011    0.1600
18     H18    -2.0425   -4.6472   -6.1529 H        1 ZINC000012236011    0.1300
19     C19    -1.9723   -6.2560   -7.6061 C.3      1 ZINC000012236011   -0.1300
20     C20    -2.0597   -5.4044   -8.8882 C.3      1 ZINC000012236011   -0.5900
21     S21    -0.6865   -4.2032   -8.7565 S.o2     1 ZINC000012236011    2.4000
22     O22     0.2982   -4.5044   -9.7358 O.2      1 ZINC000012236011   -0.9200
23     O23    -1.2178   -2.8883   -8.6682 O.2      1 ZINC000012236011   -0.9200
24     C24    -0.0848   -4.7301   -7.1069 C.3      1 ZINC000012236011   -0.6100
25     N25    -0.0647   -7.3504   -5.4315 N.2      1 ZINC000012236011   -0.2900
26     C26     0.0407   -7.8600   -4.2311 C.2      1 ZINC000012236011    0.1800
27     C27     0.8869   -9.0459   -3.8456 C.3      1 ZINC000012236011   -0.1100
28     C28     2.0171   -7.7402   -0.9596 C.ar     1 ZINC000012236011   -0.1300
29     C29     3.3824   -7.8551   -1.1294 C.ar     1 ZINC000012236011   -0.1200
30     H30     8.2130   -6.5618   -0.2144 H        1 ZINC000012236011    0.1000
31     H31     8.0997   -6.6549   -1.9883 H        1 ZINC000012236011    0.0800
32     H32     8.3301   -5.0794   -1.1926 H        1 ZINC000012236011    0.1000
33     H33     5.9105   -7.6043   -1.9711 H        1 ZINC000012236011    0.4100
34     H34     4.1502   -4.5884   -1.5632 H        1 ZINC000012236011    0.1400
35     H35     1.7158   -4.3837   -1.2695 H        1 ZINC000012236011    0.1300
36     H36    -0.3331   -5.6890   -0.2624 H        1 ZINC000012236011    0.4300
37     H37    -1.7756   -4.1996   -3.3096 H        1 ZINC000012236011    0.1000
38     H38    -3.0653   -4.8725   -4.3353 H        1 ZINC000012236011    0.0900
39     H39    -2.8294   -5.4898   -2.6826 H        1 ZINC000012236011    0.1300
40     H40    -1.3565   -7.1360   -7.7919 H        1 ZINC000012236011    0.1000
41     H41    -2.9722   -6.5678   -7.3044 H        1 ZINC000012236011    0.1000
42     H42    -1.9298   -6.0326   -9.7694 H        1 ZINC000012236011    0.1500
43     H43    -3.0158   -4.8829   -8.9318 H        1 ZINC000012236011    0.1500
44     H44     0.2220   -3.8687   -6.5137 H        1 ZINC000012236011    0.1500
45     H45     0.7320   -5.4454   -7.2033 H        1 ZINC000012236011    0.1500
46     H46     1.8807   -8.7043   -3.5560 H        1 ZINC000012236011    0.0900
47     H47     0.4230   -9.5662   -3.0076 H        1 ZINC000012236011    0.1100
48     H48     0.9690   -9.7249   -4.6943 H        1 ZINC000012236011    0.0800
49     H49     1.4178   -8.6225   -0.7901 H        1 ZINC000012236011    0.1600
50     H50     3.8515   -8.8271   -1.0893 H        1 ZINC000012236011    0.1300
@<TRIPOS>BOND
1     1     2     1
2     1     30    1
3     1     31    1
4     1     32    1
5     2     3     2
6     2     4     am
7     4     5     1
8     4     33    1
9     5     29    ar
10    5     6     ar
11    6     7     ar
12    6     34    1
13    7     8     ar
14    7     35    1
15    8     9     1
16    8     28    ar
17    9     10    am
18    9     36    1
19    10    11    2
20    10    12    2
21    10    13    1
22    13    26    1
23    13    14    2
24    14    15    1
25    14    16    1
26    15    37    1
27    15    38    1
28    15    39    1
29    16    17    1
30    16    25    1
31    17    18    1
32    17    24    1
33    17    19    1
34    19    20    1
35    19    40    1
36    19    41    1
37    20    21    1
38    20    42    1
39    20    43    1
40    21    22    2
41    21    23    2
42    21    24    1
43    24    44    1
44    24    45    1
45    25    26    2
46    26    27    1
47    27    46    1
48    27    47    1
49    27    48    1
50    28    29    ar
51    28    49    1
52    29    50    1
@<TRIPOS>SUBSTRUCTURE
1   ZINC000012236011 1     RESIDUE    1   A     ZIN   1
@<TRIPOS>MOLECULE
ZINC000013509012
48    52    1     0     0
SMALL
USER_CHARGES
@<TRIPOS>ATOM
1      O1      0.0021   -0.0041    0.0020 O.co2    1 ZINC000013509012   -1.0600
2      S2     -0.0177    1.4504    0.0100 S.o2     1 ZINC000013509012    2.6900
3      O3      1.3231    2.0147    0.0002 O.co2    1 ZINC000013509012   -1.0400
4      O4     -0.8452    1.9911   -1.0572 O.co2    1 ZINC000013509012   -1.0600
5      C5     -0.7639    1.9401    1.5293 C.ar     1 ZINC000013509012   -0.7000
6      C6     -2.1368    2.1167    1.6071 C.ar     1 ZINC000013509012    0.1900
7      N7     -2.7231    2.4814    2.7258 N.ar     1 ZINC000013509012   -0.4600
8      C8     -2.0320    2.6999    3.8402 C.ar     1 ZINC000013509012    0.1800
9      C9     -2.7023    3.1064    5.0821 C.ar     1 ZINC000013509012    0.1800
10     N10    -4.0210    3.2682    5.1301 N.ar     1 ZINC000013509012   -0.4600
11     C11    -4.6349    3.6311    6.2346 C.ar     1 ZINC000013509012    0.1900
12     C12    -3.9386    3.8655    7.4105 C.ar     1 ZINC000013509012   -0.7000
13     S13    -4.7998    4.3506    8.8692 S.o2     1 ZINC000013509012    2.6900
14     O14    -5.1556    3.1279    9.5724 O.co2    1 ZINC000013509012   -1.0600
15     O15    -3.8853    5.1778    9.6408 O.co2    1 ZINC000013509012   -1.0400
16     O16    -5.9737    5.0925    8.4360 O.co2    1 ZINC000013509012   -1.0600
17     C17    -2.5555    3.7148    7.4315 C.ar     1 ZINC000013509012    0.1000
18     C18    -1.7792    3.9573    8.6695 C.ar     1 ZINC000013509012   -0.0400
19     C19    -0.8671    5.0107    8.7291 C.ar     1 ZINC000013509012   -0.0800
20     C20    -0.1469    5.2315    9.8851 C.ar     1 ZINC000013509012   -0.1200
21     C21    -0.3277    4.4101   10.9835 C.ar     1 ZINC000013509012   -0.1200
22     C22    -1.2306    3.3632   10.9305 C.ar     1 ZINC000013509012   -0.1100
23     C23    -1.9615    3.1365    9.7823 C.ar     1 ZINC000013509012   -0.0800
24     C24    -1.9139    3.3231    6.2325 C.ar     1 ZINC000013509012   -0.1000
25     C25    -0.5160    3.1503    6.1787 C.ar     1 ZINC000013509012   -0.0900
26     C26     0.1009    2.7762    5.0358 C.ar     1 ZINC000013509012   -0.1000
27     C27    -0.6292    2.5441    3.8526 C.ar     1 ZINC000013509012   -0.1000
28     C28     0.0204    2.1464    2.6600 C.ar     1 ZINC000013509012    0.1000
29     C29     1.4893    1.9607    2.6153 C.ar     1 ZINC000013509012   -0.0400
30     C30     2.3389    3.0494    2.8100 C.ar     1 ZINC000013509012   -0.0800
31     C31     3.7064    2.8701    2.7672 C.ar     1 ZINC000013509012   -0.1200
32     C32     4.2350    1.6136    2.5314 C.ar     1 ZINC000013509012   -0.1200
33     C33     3.3974    0.5298    2.3371 C.ar     1 ZINC000013509012   -0.1100
34     C34     2.0283    0.6953    2.3842 C.ar     1 ZINC000013509012   -0.0800
35     H35    -2.7398    1.9509    0.7265 H        1 ZINC000013509012    0.1700
36     H36    -5.7083    3.7500    6.2257 H        1 ZINC000013509012    0.1700
37     H37    -0.7247    5.6522    7.8719 H        1 ZINC000013509012    0.1200
38     H38     0.5596    6.0469    9.9324 H        1 ZINC000013509012    0.1200
39     H39     0.2386    4.5866   11.8861 H        1 ZINC000013509012    0.1200
40     H40    -1.3671    2.7252   11.7911 H        1 ZINC000013509012    0.1200
41     H41    -2.6663    2.3191    9.7421 H        1 ZINC000013509012    0.1300
42     H42     0.0733    3.3205    7.0675 H        1 ZINC000013509012    0.1300
43     H43     1.1738    2.6531    5.0289 H        1 ZINC000013509012    0.1300
44     H44     1.9274    4.0310    2.9935 H        1 ZINC000013509012    0.1200
45     H45     4.3653    3.7124    2.9178 H        1 ZINC000013509012    0.1200
46     H46     5.3060    1.4783    2.4985 H        1 ZINC000013509012    0.1200
47     H47     3.8160   -0.4486    2.1531 H        1 ZINC000013509012    0.1200
48     H48     1.3754   -0.1516    2.2327 H        1 ZINC000013509012    0.1300
@<TRIPOS>BOND
1     1     2     ar
2     2     3     ar
3     2     4     ar
4     2     5     1
5     5     28    ar
6     5     6     ar
7     6     7     ar
8     6     35    1
9     7     8     ar
10    8     27    ar
11    8     9     ar
12    9     24    ar
13    9     10    ar
14    10    11    ar
15    11    12    ar
16    11    36    1
17    12    13    1
18    12    17    ar
19    13    14    ar
20    13    15    ar
21    13    16    ar
22    17    18    1
23    17    24    ar
24    18    23    ar
25    18    19    ar
26    19    20    ar
27    19    37    1
28    20    21    ar
29    20    38    1
30    21    22    ar
31    21    39    1
32    22    23    ar
33    22    40    1
34    23    41    1
35    24    25    ar
36    25    26    ar
37    25    42    1
38    26    27    ar
39    26    43    1
40    27    28    ar
41    28    29    1
42    29    34    ar
43    29    30    ar
44    30    31    ar
45    30    44    1
46    31    32    ar
47    31    45    1
48    32    33    ar
49    32    46    1
50    33    34    ar
51    33    47    1
52    34    48    1
@<TRIPOS>SUBSTRUCTURE
1   ZINC000013509012 1     RESIDUE    1   A     ZIN   1
@<TRIPOS>MOLECULE
ZINC000017089928
48    50    1     0     0
SMALL
USER_CHARGES
@<TRIPOS>ATOM
1      C1     -0.0187    1.5258    0.0104 C.3      1 ZINC000017089928   -0.1600
2      C2      0.0021   -0.0041    0.0020 C.3      1 ZINC000017089928    0.1300
3      N3      0.6878   -0.4765   -1.2033 N.pl3    1 ZINC000017089928   -0.3700
4      C4      1.7397   -1.3211   -1.2388 C.2      1 ZINC000017089928    0.1600
5      C5      2.0763   -1.5064   -2.5362 C.2      1 ZINC000017089928   -0.7500
6      S6      3.3863   -2.5228   -3.1324 S.o2     1 ZINC000017089928    2.6400
7      O7      4.1140   -1.7342   -4.0639 O.2      1 ZINC000017089928   -1.0300
8      O8      3.9812   -3.1220   -1.9894 O.2      1 ZINC000017089928   -1.0400
9      N9      2.6963   -3.7532   -3.9997 N.pl3    1 ZINC000017089928   -1.0900
10     C10     3.5030   -4.7241   -4.5976 C.ar     1 ZINC000017089928    0.2700
11     C11     4.8838   -4.6623   -4.4609 C.ar     1 ZINC000017089928   -0.2200
12     C12     5.6786   -5.6243   -5.0530 C.ar     1 ZINC000017089928   -0.0800
13     C13     5.1011   -6.6480   -5.7812 C.ar     1 ZINC000017089928   -0.1400
14     C14     3.7265   -6.7123   -5.9197 C.ar     1 ZINC000017089928   -0.6300
15     S15     2.9958   -8.0190   -6.8488 S.o2     1 ZINC000017089928    2.6900
16     O16     1.7258   -7.5461   -7.2761 O.2      1 ZINC000017089928   -0.9600
17     O17     3.9956   -8.4806   -7.7469 O.2      1 ZINC000017089928   -0.9600
18     N18     2.7017   -9.2636   -5.7967 N.am     1 ZINC000017089928   -1.0000
19     C19     3.7152  -10.3011   -5.5485 C.3      1 ZINC000017089928    0.0900
20     C20     3.8954  -10.4483   -4.0333 C.3      1 ZINC000017089928    0.0500
21     O21     2.6177  -10.6504   -3.4247 O.3      1 ZINC000017089928   -0.3800
22     C22     1.7114   -9.5571   -3.5896 C.3      1 ZINC000017089928    0.0400
23     C23     1.4215   -9.3612   -5.0778 C.3      1 ZINC000017089928    0.0900
24     C24     2.9258   -5.7571   -5.3256 C.ar     1 ZINC000017089928   -0.0800
25     C25     1.2001   -0.7491   -3.3205 C.2      1 ZINC000017089928    0.1600
26     C26     1.2130   -0.6602   -4.8249 C.3      1 ZINC000017089928   -0.0900
27     N27     0.3635   -0.1361   -2.5229 N.2      1 ZINC000017089928   -0.3100
28     H28     1.0039    1.9031    0.0027 H        1 ZINC000017089928    0.0600
29     H29    -0.5459    1.8868   -0.8726 H        1 ZINC000017089928    0.0700
30     H30    -0.5289    1.8773    0.9072 H        1 ZINC000017089928    0.0700
31     H31     0.5293   -0.3651    0.8851 H        1 ZINC000017089928    0.1000
32     H32    -1.0205   -0.3814    0.0098 H        1 ZINC000017089928    0.0900
33     H33     2.2261   -1.7686   -0.3846 H        1 ZINC000017089928    0.1900
34     H34     5.3355   -3.8627   -3.8925 H        1 ZINC000017089928    0.1000
35     H35     6.7524   -5.5766   -4.9474 H        1 ZINC000017089928    0.1100
36     H36     5.7249   -7.3989   -6.2432 H        1 ZINC000017089928    0.1200
37     H37     3.3821  -11.2485   -5.9723 H        1 ZINC000017089928    0.0800
38     H38     4.6609  -10.0070   -6.0038 H        1 ZINC000017089928    0.1000
39     H39     4.5376  -11.3039   -3.8244 H        1 ZINC000017089928    0.1000
40     H40     4.3511   -9.5434   -3.6313 H        1 ZINC000017089928    0.0600
41     H41     0.7823   -9.7715   -3.0615 H        1 ZINC000017089928    0.1000
42     H42     2.1592   -8.6489   -3.1860 H        1 ZINC000017089928    0.0600
43     H43     0.8467   -8.4464   -5.2226 H        1 ZINC000017089928    0.1000
44     H44     0.8577  -10.2134   -5.4573 H        1 ZINC000017089928    0.0800
45     H45     1.8524   -5.8078   -5.4341 H        1 ZINC000017089928    0.1300
46     H46     0.5725   -1.4382   -5.2403 H        1 ZINC000017089928    0.0900
47     H47     0.8441    0.3177   -5.1342 H        1 ZINC000017089928    0.0700
48     H48     2.2317   -0.7958   -5.1881 H        1 ZINC000017089928    0.1000
@<TRIPOS>BOND
1     1     2     1
2     1     28    1
3     1     29    1
4     1     30    1
5     2     3     1
6     2     31    1
7     2     32    1
8     3     27    1
9     3     4     1
10    4     5     2
11    4     33    1
12    5     6     1
13    5     25    1
14    6     7     2
15    6     8     2
16    6     9     1
17    9     10    1
18    10    24    ar
19    10    11    ar
20    11    12    ar
21    11    34    1
22    12    13    ar
23    12    35    1
24    13    14    ar
25    13    36    1
26    14    15    1
27    14    24    ar
28    15    16    2
29    15    17    2
30    15    18    am
31    18    23    1
32    18    19    1
33    19    20    1
34    19    37    1
35    19    38    1
36    20    21    1
37    20    39    1
38    20    40    1
39    21    22    1
40    22    23    1
41    22    41    1
42    22    42    1
43    23    43    1
44    23    44    1
45    24    45    1
46    25    26    1
47    25    27    2
48    26    46    1
49    26    47    1
50    26    48    1
@<TRIPOS>SUBSTRUCTURE
1   ZINC000017089928 1     RESIDUE    1   A     ZIN   1

@<TRIPOS>MOLECULE
ZINC000017089928
49    51    1     0     0
SMALL
USER_CHARGES
@<TRIPOS>ATOM
1      C1      8.1830    0.4808   -5.8417 C.3      1 ZINC000017089928   -0.1700
2      C2      6.7256    0.2900   -6.2662 C.3      1 ZINC000017089928    0.1200
3      N3      6.1456   -0.8356   -5.5293 N.pl3    1 ZINC000017089928   -0.3500
4      C4      5.0220   -0.8011   -4.7827 C.2      1 ZINC000017089928    0.1800
5      C5      4.8284   -2.0390   -4.2715 C.2      1 ZINC000017089928   -0.8200
6      S6      3.4993   -2.5323   -3.2253 S.o2     1 ZINC000017089928    2.7200
7      O7      4.0845   -3.2337   -2.1368 O.2      1 ZINC000017089928   -0.9400
8      O8      2.6738   -1.3877   -3.0585 O.2      1 ZINC000017089928   -0.9600
9      N9      2.5991   -3.6396   -4.0653 N.am     1 ZINC000017089928   -1.0600
10     C10     1.9781   -3.2720   -5.2612 C.ar     1 ZINC000017089928    0.1300
11     C11     1.2801   -2.0740   -5.3435 C.ar     1 ZINC000017089928   -0.1000
12     C12     0.6677   -1.7133   -6.5278 C.ar     1 ZINC000017089928   -0.1100
13     C13     0.7489   -2.5432   -7.6307 C.ar     1 ZINC000017089928   -0.0300
14     C14     1.4428   -3.7370   -7.5521 C.ar     1 ZINC000017089928   -0.6600
15     S15     1.5431   -4.7909   -8.9606 S.o2     1 ZINC000017089928    2.6900
16     O16     1.7937   -6.0992   -8.4658 O.2      1 ZINC000017089928   -0.9500
17     O17     0.4283   -4.4707   -9.7815 O.2      1 ZINC000017089928   -0.9500
18     N18     2.8928   -4.3459   -9.8106 N.am     1 ZINC000017089928   -1.0000
19     C19     2.8223   -3.3161  -10.8593 C.3      1 ZINC000017089928    0.0900
20     C20     3.9241   -2.2830  -10.5973 C.3      1 ZINC000017089928    0.0500
21     O21     5.1766   -2.9570  -10.4527 O.3      1 ZINC000017089928   -0.3700
22     C22     5.2331   -3.8548   -9.3415 C.3      1 ZINC000017089928    0.0500
23     C23     4.1994   -4.9644   -9.5353 C.3      1 ZINC000017089928    0.0900
24     C24     2.0622   -4.1011   -6.3729 C.ar     1 ZINC000017089928   -0.0300
25     C25     5.8693   -2.8579   -4.7211 C.2      1 ZINC000017089928    0.1600
26     C26     6.0495   -4.3178   -4.3937 C.3      1 ZINC000017089928   -0.1100
27     N27     6.6562   -2.1391   -5.4801 N.2      1 ZINC000017089928   -0.2800
28     H28     8.2260    0.6860   -4.7721 H        1 ZINC000017089928    0.0600
29     H29     8.7469   -0.4260   -6.0606 H        1 ZINC000017089928    0.0700
30     H30     8.6145    1.3182   -6.3900 H        1 ZINC000017089928    0.0800
31     H31     6.1617    1.1967   -6.0473 H        1 ZINC000017089928    0.1000
32     H32     6.6826    0.0847   -7.3359 H        1 ZINC000017089928    0.0900
33     H33     4.3906    0.0602   -4.6217 H        1 ZINC000017089928    0.1900
34     H34     2.5030   -4.5436   -3.7269 H        1 ZINC000017089928    0.4300
35     H35     1.2160   -1.4255   -4.4822 H        1 ZINC000017089928    0.1700
36     H36     0.1244   -0.7821   -6.5923 H        1 ZINC000017089928    0.1400
37     H37     0.2690   -2.2588   -8.5555 H        1 ZINC000017089928    0.1400
38     H38     2.9745   -3.7755  -11.8359 H        1 ZINC000017089928    0.0900
39     H39     1.8477   -2.8287  -10.8302 H        1 ZINC000017089928    0.1000
40     H40     3.9791   -1.5887  -11.4358 H        1 ZINC000017089928    0.1100
41     H41     3.6985   -1.7339   -9.6832 H        1 ZINC000017089928    0.0500
42     H42     6.2298   -4.2913   -9.2766 H        1 ZINC000017089928    0.1100
43     H43     5.0122   -3.3114   -8.4228 H        1 ZINC000017089928    0.0500
44     H44     4.1373   -5.5702   -8.6314 H        1 ZINC000017089928    0.1000
45     H45     4.4877   -5.5914  -10.3791 H        1 ZINC000017089928    0.0900
46     H46     2.6039   -5.0334   -6.3122 H        1 ZINC000017089928    0.1500
47     H47     5.4597   -4.9206   -5.0842 H        1 ZINC000017089928    0.0900
48     H48     7.1024   -4.5839   -4.4872 H        1 ZINC000017089928    0.0900
49     H49     5.7169   -4.5049   -3.3727 H        1 ZINC000017089928    0.1000
@<TRIPOS>BOND
1     1     2     1
2     1     28    1
3     1     29    1
4     1     30    1
5     2     3     1
6     2     31    1
7     2     32    1
8     3     27    1
9     3     4     1
10    4     5     2
11    4     33    1
12    5     6     1
13    5     25    1
14    6     7     2
15    6     8     2
16    6     9     am
17    9     10    1
18    9     34    1
19    10    24    ar
20    10    11    ar
21    11    12    ar
22    11    35    1
23    12    13    ar
24    12    36    1
25    13    14    ar
26    13    37    1
27    14    15    1
28    14    24    ar
29    15    16    2
30    15    17    2
31    15    18    am
32    18    23    1
33    18    19    1
34    19    20    1
35    19    38    1
36    19    39    1
37    20    21    1
38    20    40    1
39    20    41    1
40    21    22    1
41    22    23    1
42    22    42    1
43    22    43    1
44    23    44    1
45    23    45    1
46    24    46    1
47    25    26    1
48    25    27    2
49    26    47    1
50    26    48    1
51    26    49    1
@<TRIPOS>SUBSTRUCTURE
1   ZINC000017089928 1     RESIDUE    1   A     ZIN   1
@<TRIPOS>MOLECULE
ZINC000019404857
55    59    1     0     0
SMALL
USER_CHARGES
@<TRIPOS>ATOM
1      O1      0.4206   -4.1352    3.9189 O.2      1 ZINC000019404857   -0.5100
2      C2      0.4816   -5.3451    3.8238 C.2      1 ZINC000019404857    0.5600
3      C3      1.4540   -6.1045    4.6439 C.ar     1 ZINC000019404857   -0.0700
4      C4      2.8144   -6.1128    4.3211 C.ar     1 ZINC000019404857   -0.1400
5      C5      3.6864   -6.8341    5.1135 C.ar     1 ZINC000019404857    0.1100
6      N6      3.2511   -7.5074    6.1597 N.ar     1 ZINC000019404857   -0.4700
7      C7      1.9776   -7.5261    6.4990 C.ar     1 ZINC000019404857    0.1100
8      C8      1.0377   -6.8280    5.7656 C.ar     1 ZINC000019404857   -0.1400
9      N9     -0.3392   -5.9967    2.9764 N.am     1 ZINC000019404857   -0.6000
10     C10    -0.3506   -7.4651    2.9260 C.3      1 ZINC000019404857    0.1100
11     C11    -1.7897   -7.9538    3.1184 C.3      1 ZINC000019404857   -0.1400
12     C12    -2.6950   -7.2823    2.0832 C.3      1 ZINC000019404857   -0.1200
13     C13    -2.6686   -5.7658    2.2872 C.3      1 ZINC000019404857   -0.1200
14     C14    -1.2439   -5.2523    2.0897 C.3      1 ZINC000019404857    0.1900
15     H15    -0.9401   -5.4067    1.0544 H        1 ZINC000019404857    0.1100
16     C16    -1.1861   -3.7830    2.4194 C.2      1 ZINC000019404857    0.4300
17     N17    -2.1552   -3.2433    3.1045 N.2      1 ZINC000019404857   -0.5300
18     C18    -2.1560   -1.9415    3.4298 C.2      1 ZINC000019404857    0.1700
19     C19    -1.1186   -1.1570    3.0517 C.2      1 ZINC000019404857   -0.2300
20     C20    -1.0182    0.3040    3.3927 C.3      1 ZINC000019404857   -0.0700
21     C21    -2.3908    0.8749    3.7482 C.3      1 ZINC000019404857    0.1100
22     N22    -3.0363   -0.0561    4.6890 N.am     1 ZINC000019404857   -0.6100
23     C23    -3.3398    0.3176    5.9478 C.2      1 ZINC000019404857    0.5500
24     O24    -3.0813    1.4405    6.3261 O.2      1 ZINC000019404857   -0.5300
25     C25    -4.0004   -0.6600    6.8854 C.3      1 ZINC000019404857   -0.2000
26     C26    -3.1776   -1.1676    8.0713 C.3      1 ZINC000019404857   -0.1500
27     C27    -4.3195   -0.1755    8.3012 C.3      1 ZINC000019404857   -0.1400
28     C28    -3.3362   -1.4065    4.2004 C.3      1 ZINC000019404857    0.1600
29     C29    -0.0707   -1.7399    2.2990 C.2      1 ZINC000019404857    0.5400
30     O30     0.8743   -1.0645    1.9263 O.2      1 ZINC000019404857   -0.5400
31     N31    -0.1312   -3.0541    2.0051 N.am     1 ZINC000019404857   -0.6100
32     H32     3.1779   -5.5640    3.4649 H        1 ZINC000019404857    0.1400
33     H33     4.7391   -6.8467    4.8722 H        1 ZINC000019404857    0.1700
34     H34     1.6651   -8.0918    7.3643 H        1 ZINC000019404857    0.1700
35     H35    -0.0041   -6.8475    6.0496 H        1 ZINC000019404857    0.1400
36     H36     0.0229   -7.8004    1.9584 H        1 ZINC000019404857    0.0800
37     H37     0.2798   -7.8629    3.7212 H        1 ZINC000019404857    0.0900
38     H38    -1.8272   -9.0353    2.9874 H        1 ZINC000019404857    0.0800
39     H39    -2.1304   -7.6963    4.1212 H        1 ZINC000019404857    0.0700
40     H40    -2.3390   -7.5201    1.0808 H        1 ZINC000019404857    0.0700
41     H41    -3.7153   -7.6470    2.2020 H        1 ZINC000019404857    0.0800
42     H42    -3.3316   -5.2899    1.5647 H        1 ZINC000019404857    0.0900
43     H43    -3.0010   -5.5288    3.2979 H        1 ZINC000019404857    0.0900
44     H44    -0.3470    0.4285    4.2425 H        1 ZINC000019404857    0.0800
45     H45    -0.6155    0.8452    2.5365 H        1 ZINC000019404857    0.0900
46     H46    -2.2739    1.8518    4.2174 H        1 ZINC000019404857    0.1000
47     H47    -2.9965    0.9678    2.8468 H        1 ZINC000019404857    0.0800
48     H48    -4.6993   -1.3566    6.4224 H        1 ZINC000019404857    0.1300
49     H49    -3.3350   -2.1985    8.3886 H        1 ZINC000019404857    0.1100
50     H50    -2.1586   -0.7945    8.1733 H        1 ZINC000019404857    0.1000
51     H51    -4.0516    0.8502    8.5545 H        1 ZINC000019404857    0.1100
52     H52    -5.2281   -0.5537    8.7697 H        1 ZINC000019404857    0.1100
53     H53    -4.2090   -1.3709    3.5486 H        1 ZINC000019404857    0.1000
54     H54    -3.5432   -2.0609    5.0472 H        1 ZINC000019404857    0.1100
55     H55     0.5780   -3.4717    1.4917 H        1 ZINC000019404857    0.4100
@<TRIPOS>BOND
1     1     2     2
2     2     3     1
3     2     9     am
4     3     8     ar
5     3     4     ar
6     4     5     ar
7     4     32    1
8     5     6     ar
9     5     33    1
10    6     7     ar
11    7     8     ar
12    7     34    1
13    8     35    1
14    9     14    1
15    9     10    1
16    10    11    1
17    10    36    1
18    10    37    1
19    11    12    1
20    11    38    1
21    11    39    1
22    12    13    1
23    12    40    1
24    12    41    1
25    13    14    1
26    13    42    1
27    13    43    1
28    14    15    1
29    14    16    1
30    16    31    1
31    16    17    2
32    17    18    1
33    18    28    1
34    18    19    2
35    19    20    1
36    19    29    1
37    20    21    1
38    20    44    1
39    20    45    1
40    21    22    1
41    21    46    1
42    21    47    1
43    22    23    am
44    22    28    1
45    23    24    2
46    23    25    1
47    25    27    1
48    25    26    1
49    25    48    1
50    26    27    1
51    26    49    1
52    26    50    1
53    27    51    1
54    27    52    1
55    28    53    1
56    28    54    1
57    29    30    2
58    29    31    am
59    31    55    1
@<TRIPOS>SUBSTRUCTURE
1   ZINC000019404857 1     RESIDUE    1   A     ZIN   1

@<TRIPOS>MOLECULE
ZINC000019404857
54    58    1     0     0
SMALL
USER_CHARGES
@<TRIPOS>ATOM
1      O1     -1.5583    0.3898   -1.9451 O.2      1 ZINC000019404857   -0.4600
2      C2     -2.5765    0.6706   -2.5460 C.2      1 ZINC000019404857    0.5400
3      C3     -2.5313    0.9140   -4.0067 C.ar     1 ZINC000019404857   -0.0700
4      C4     -3.3723    1.8577   -4.6042 C.ar     1 ZINC000019404857   -0.1500
5      C5     -3.2966    2.0530   -5.9697 C.ar     1 ZINC000019404857    0.0900
6      N6     -2.4475    1.3641   -6.7059 N.ar     1 ZINC000019404857   -0.4800
7      C7     -1.6374    0.4654   -6.1829 C.ar     1 ZINC000019404857    0.1000
8      C8     -1.6424    0.2105   -4.8252 C.ar     1 ZINC000019404857   -0.1200
9      N9     -3.7478    0.7552   -1.8847 N.am     1 ZINC000019404857   -0.6000
10     C10    -5.0055    0.9677   -2.6138 C.3      1 ZINC000019404857    0.1000
11     C11    -5.9991   -0.1271   -2.2125 C.3      1 ZINC000019404857   -0.1400
12     C12    -6.1499   -0.1401   -0.6896 C.3      1 ZINC000019404857   -0.1200
13     C13    -4.7984   -0.4543   -0.0441 C.3      1 ZINC000019404857   -0.1200
14     C14    -3.7919    0.6307   -0.4214 C.3      1 ZINC000019404857    0.2300
15     H15    -4.1009    1.5822    0.0113 H        1 ZINC000019404857    0.0800
16     C16    -2.4280    0.2579    0.1000 C.2      1 ZINC000019404857    0.3700
17     N17    -1.7543    1.1242    0.8039 N.2      1 ZINC000019404857   -0.6300
18     C18    -0.5373    0.8468    1.2962 C.2      1 ZINC000019404857    0.1500
19     C19     0.0131   -0.3705    1.0727 C.2      1 ZINC000019404857   -0.3200
20     C20     1.3574   -0.7819    1.6062 C.3      1 ZINC000019404857   -0.0500
21     C21     2.1965    0.4431    1.9689 C.3      1 ZINC000019404857    0.1100
22     N22     1.3454    1.3575    2.7488 N.am     1 ZINC000019404857   -0.6000
23     C23     1.6325    1.6609    4.0302 C.2      1 ZINC000019404857    0.5500
24     O24     2.6087    1.1778    4.5636 O.2      1 ZINC000019404857   -0.5500
25     C25     0.7406    2.6005    4.8001 C.3      1 ZINC000019404857   -0.1900
26     C26    -0.0840    2.0115    5.9464 C.3      1 ZINC000019404857   -0.1500
27     C27     1.1201    2.9052    6.2506 C.3      1 ZINC000019404857   -0.1500
28     C28     0.1728    1.9253    2.0744 C.3      1 ZINC000019404857    0.1700
29     C29    -0.7133   -1.3083    0.2999 C.2      1 ZINC000019404857    0.5000
30     O30    -0.2465   -2.4101    0.0632 O.2      1 ZINC000019404857   -0.6300
31     N31    -1.9312   -0.9662   -0.1658 N.pl3    1 ZINC000019404857   -0.6300
32     H32    -4.0709    2.4252   -4.0072 H        1 ZINC000019404857    0.1500
33     H33    -3.9420    2.7797   -6.4405 H        1 ZINC000019404857    0.1600
34     H34    -0.9578   -0.0764   -6.8241 H        1 ZINC000019404857    0.1600
35     H35    -0.9756   -0.5270   -4.4034 H        1 ZINC000019404857    0.1400
36     H36    -5.4155    1.9448   -2.3583 H        1 ZINC000019404857    0.0700
37     H37    -4.8191    0.9166   -3.6866 H        1 ZINC000019404857    0.0900
38     H38    -6.9668    0.0736   -2.6722 H        1 ZINC000019404857    0.0700
39     H39    -5.6293   -1.0954   -2.5498 H        1 ZINC000019404857    0.0700
40     H40    -6.4961    0.8363   -0.3506 H        1 ZINC000019404857    0.0600
41     H41    -6.8750   -0.9019   -0.4030 H        1 ZINC000019404857    0.0600
42     H42    -4.9115   -0.4865    1.0396 H        1 ZINC000019404857    0.0700
43     H43    -4.4399   -1.4195   -0.4018 H        1 ZINC000019404857    0.0800
44     H44     1.2175   -1.3967    2.4953 H        1 ZINC000019404857    0.0500
45     H45     1.8814   -1.3636    0.8478 H        1 ZINC000019404857    0.0700
46     H46     3.0554    0.1383    2.5668 H        1 ZINC000019404857    0.0900
47     H47     2.5362    0.9400    1.0601 H        1 ZINC000019404857    0.0700
48     H48     0.2911    3.4049    4.2178 H        1 ZINC000019404857    0.1200
49     H49    -1.0763    2.4282    6.1184 H        1 ZINC000019404857    0.1000
50     H50     0.0187    0.9444    6.1437 H        1 ZINC000019404857    0.1000
51     H51     2.0148    2.4261    6.6480 H        1 ZINC000019404857    0.1100
52     H52     0.9198    3.9099    6.6228 H        1 ZINC000019404857    0.1000
53     H53     0.4926    2.7135    1.3928 H        1 ZINC000019404857    0.0700
54     H54    -0.5063    2.3430    2.8177 H        1 ZINC000019404857    0.0900
@<TRIPOS>BOND
1     1     2     2
2     2     3     1
3     2     9     am
4     3     8     ar
5     3     4     ar
6     4     5     ar
7     4     32    1
8     5     6     ar
9     5     33    1
10    6     7     ar
11    7     8     ar
12    7     34    1
13    8     35    1
14    9     14    1
15    9     10    1
16    10    11    1
17    10    36    1
18    10    37    1
19    11    12    1
20    11    38    1
21    11    39    1
22    12    13    1
23    12    40    1
24    12    41    1
25    13    14    1
26    13    42    1
27    13    43    1
28    14    15    1
29    14    16    1
30    16    31    1
31    16    17    2
32    17    18    1
33    18    28    1
34    18    19    2
35    19    20    1
36    19    29    1
37    20    21    1
38    20    44    1
39    20    45    1
40    21    22    1
41    21    46    1
42    21    47    1
43    22    23    am
44    22    28    1
45    23    24    2
46    23    25    1
47    25    27    1
48    25    26    1
49    25    48    1
50    26    27    1
51    26    49    1
52    26    50    1
53    27    51    1
54    27    52    1
55    28    53    1
56    28    54    1
57    29    30    2
58    29    31    1
@<TRIPOS>SUBSTRUCTURE
1   ZINC000019404857 1     RESIDUE    1   A     ZIN   1
@<TRIPOS>MOLECULE
ZINC000019497418
56    59    1     0     0
SMALL
USER_CHARGES
@<TRIPOS>ATOM
1      C1      1.5719   -2.3478   -2.2708 C.3      1 ZINC000019497418   -0.1400
2      C2      0.7904   -1.9293   -1.0238 C.3      1 ZINC000019497418    0.0900
3      H3      1.2812   -2.3278   -0.1359 H        1 ZINC000019497418    0.0700
4      C4     -0.6371   -2.4763   -1.1077 C.3      1 ZINC000019497418    0.0200
5      N5     -1.4053   -2.0070    0.0547 N.3      1 ZINC000019497418   -0.5200
6      C6     -2.7675   -2.5567    0.0422 C.3      1 ZINC000019497418    0.0400
7      C7     -2.7085   -4.0497    0.2389 C.2      1 ZINC000019497418    0.5400
8      O8     -1.6504   -4.5871    0.4889 O.2      1 ZINC000019497418   -0.5000
9      N9     -3.8316   -4.7877    0.1369 N.am     1 ZINC000019497418   -0.6100
10     C10    -5.1770   -4.2674   -0.1673 C.3      1 ZINC000019497418    0.1000
11     C11    -5.9403   -5.4715   -0.7730 C.3      1 ZINC000019497418   -0.1300
12     C12    -5.3888   -6.6483    0.0746 C.3      1 ZINC000019497418   -0.1300
13     C13    -3.9168   -6.2459    0.3043 C.3      1 ZINC000019497418    0.1900
14     H14    -3.2780   -6.7455   -0.4240 H        1 ZINC000019497418    0.1100
15     C15    -3.4943   -6.6233    1.7007 C.2      1 ZINC000019497418    0.3900
16     N16    -3.0280   -5.6991    2.4943 N.2      1 ZINC000019497418   -0.5000
17     C17    -2.6382   -5.9853    3.7479 C.2      1 ZINC000019497418    0.2200
18     C18    -2.1123   -4.9147    4.6289 C.ar     1 ZINC000019497418   -0.0200
19     C19    -2.0178   -3.5949    4.1777 C.ar     1 ZINC000019497418   -0.1200
20     C20    -1.5222   -2.6295    5.0311 C.ar     1 ZINC000019497418    0.1000
21     N21    -1.1410   -2.9388    6.2550 N.ar     1 ZINC000019497418   -0.4700
22     C22    -1.2135   -4.1708    6.7197 C.ar     1 ZINC000019497418    0.1000
23     C23    -1.7027   -5.1965    5.9356 C.ar     1 ZINC000019497418   -0.1500
24     C24    -2.7313   -7.2853    4.2110 C.2      1 ZINC000019497418   -0.2800
25     C25    -3.2369   -8.2710    3.3414 C.2      1 ZINC000019497418    0.5300
26     O26    -3.3374   -9.4307    3.7066 O.2      1 ZINC000019497418   -0.5300
27     N27    -3.6134   -7.9059    2.0979 N.am     1 ZINC000019497418   -0.6300
28     C28    -1.4304   -0.5379    0.1038 C.3      1 ZINC000019497418    0.0300
29     C29     0.0050   -0.0104    0.1755 C.3      1 ZINC000019497418    0.0900
30     H30     0.4728   -0.3525    1.0987 H        1 ZINC000019497418    0.0700
31     C31    -0.0108    1.5192    0.1471 C.3      1 ZINC000019497418   -0.1500
32     O32     0.7457   -0.5021   -0.9448 O.3      1 ZINC000019497418   -0.3800
33     H33     2.5876   -1.9568   -2.2112 H        1 ZINC000019497418    0.0700
34     H34     1.6043   -3.4356   -2.3313 H        1 ZINC000019497418    0.0700
35     H35     1.0806   -1.9490   -3.1583 H        1 ZINC000019497418    0.0600
36     H36    -1.1097   -2.1214   -2.0236 H        1 ZINC000019497418    0.0400
37     H37    -0.6099   -3.5659   -1.1101 H        1 ZINC000019497418    0.1000
38     H38    -3.3482   -2.1069    0.8475 H        1 ZINC000019497418    0.1100
39     H39    -3.2402   -2.3347   -0.9145 H        1 ZINC000019497418    0.0600
40     H40    -5.6674   -3.9273    0.7449 H        1 ZINC000019497418    0.0700
41     H41    -5.1147   -3.4547   -0.8910 H        1 ZINC000019497418    0.0800
42     H42    -7.0160   -5.3615   -0.6355 H        1 ZINC000019497418    0.0900
43     H43    -5.6940   -5.6001   -1.8270 H        1 ZINC000019497418    0.0800
44     H44    -5.9235   -6.7255    1.0213 H        1 ZINC000019497418    0.0900
45     H45    -5.4481   -7.5844   -0.4806 H        1 ZINC000019497418    0.1000
46     H46    -2.3275   -3.3346    3.1764 H        1 ZINC000019497418    0.1500
47     H47    -1.4454   -1.6071    4.6916 H        1 ZINC000019497418    0.1600
48     H48    -0.8902   -4.3794    7.7288 H        1 ZINC000019497418    0.1600
49     H49    -1.7596   -6.2031    6.3227 H        1 ZINC000019497418    0.1400
50     H50    -2.4235   -7.5384    5.2148 H        1 ZINC000019497418    0.1600
51     H51    -3.9642   -8.5707    1.4848 H        1 ZINC000019497418    0.4200
52     H52    -1.9156   -0.1520   -0.7927 H        1 ZINC000019497418    0.0400
53     H53    -1.9822   -0.2126    0.9857 H        1 ZINC000019497418    0.0900
54     H54    -0.5778    1.8926    0.9999 H        1 ZINC000019497418    0.0700
55     H55     1.0114    1.8942    0.1982 H        1 ZINC000019497418    0.0700
56     H56    -0.4773    1.8607   -0.7770 H        1 ZINC000019497418    0.0600
@<TRIPOS>BOND
1     1     2     1
2     1     33    1
3     1     34    1
4     1     35    1
5     2     3     1
6     2     32    1
7     2     4     1
8     4     5     1
9     4     36    1
10    4     37    1
11    5     6     1
12    5     28    1
13    6     7     1
14    6     38    1
15    6     39    1
16    7     8     2
17    7     9     am
18    9     13    1
19    9     10    1
20    10    11    1
21    10    40    1
22    10    41    1
23    11    12    1
24    11    42    1
25    11    43    1
26    12    13    1
27    12    44    1
28    12    45    1
29    13    14    1
30    13    15    1
31    15    27    1
32    15    16    2
33    16    17    1
34    17    18    1
35    17    24    2
36    18    23    ar
37    18    19    ar
38    19    20    ar
39    19    46    1
40    20    21    ar
41    20    47    1
42    21    22    ar
43    22    23    ar
44    22    48    1
45    23    49    1
46    24    25    1
47    24    50    1
48    25    26    2
49    25    27    am
50    27    51    1
51    28    29    1
52    28    52    1
53    28    53    1
54    29    30    1
55    29    31    1
56    29    32    1
57    31    54    1
58    31    55    1
59    31    56    1
@<TRIPOS>SUBSTRUCTURE
1   ZINC000019497418 1     RESIDUE    1   A     ZIN   1

@<TRIPOS>MOLECULE
ZINC000019497418
55    58    1     0     0
SMALL
USER_CHARGES
@<TRIPOS>ATOM
1      C1      1.5719   -2.3478   -2.2708 C.3      1 ZINC000019497418   -0.1400
2      C2      0.7903   -1.9293   -1.0238 C.3      1 ZINC000019497418    0.0900
3      H3      1.2812   -2.3278   -0.1359 H        1 ZINC000019497418    0.0700
4      C4     -0.6371   -2.4763   -1.1077 C.3      1 ZINC000019497418    0.0200
5      N5     -1.4053   -2.0070    0.0547 N.3      1 ZINC000019497418   -0.5200
6      C6     -2.7675   -2.5567    0.0422 C.3      1 ZINC000019497418    0.0500
7      C7     -2.7085   -4.0497    0.2389 C.2      1 ZINC000019497418    0.5400
8      O8     -1.6504   -4.5871    0.4889 O.2      1 ZINC000019497418   -0.5100
9      N9     -3.8316   -4.7877    0.1369 N.am     1 ZINC000019497418   -0.6000
10     C10    -5.1770   -4.2674   -0.1673 C.3      1 ZINC000019497418    0.1000
11     C11    -5.9403   -5.4715   -0.7730 C.3      1 ZINC000019497418   -0.1300
12     C12    -5.3888   -6.6483    0.0746 C.3      1 ZINC000019497418   -0.1100
13     C13    -3.9168   -6.2459    0.3043 C.3      1 ZINC000019497418    0.2200
14     H14    -3.2780   -6.7455   -0.4240 H        1 ZINC000019497418    0.0900
15     C15    -3.4943   -6.6233    1.7007 C.2      1 ZINC000019497418    0.3500
16     N16    -3.0384   -7.8250    1.9228 N.2      1 ZINC000019497418   -0.6100
17     C17    -2.6490   -8.2095    3.1500 C.2      1 ZINC000019497418    0.1900
18     C18    -2.1341   -9.5819    3.3741 C.ar     1 ZINC000019497418    0.0300
19     C19    -2.0388  -10.4945    2.3193 C.ar     1 ZINC000019497418   -0.1400
20     C20    -1.5538  -11.7620    2.5724 C.ar     1 ZINC000019497418    0.0800
21     N21    -1.1841  -12.1153    3.7879 N.ar     1 ZINC000019497418   -0.5000
22     C22    -1.2578  -11.2855    4.8102 C.ar     1 ZINC000019497418    0.0900
23     C23    -1.7252   -9.9970    4.6449 C.ar     1 ZINC000019497418   -0.1600
24     C24    -2.7315   -7.3160    4.2027 C.2      1 ZINC000019497418   -0.3500
25     C25    -3.2259   -6.0227    3.9457 C.2      1 ZINC000019497418    0.4900
26     O26    -3.3161   -5.2013    4.8432 O.2      1 ZINC000019497418   -0.6300
27     N27    -3.5924   -5.7082    2.6855 N.pl3    1 ZINC000019497418   -0.6300
28     C28    -1.4304   -0.5379    0.1038 C.3      1 ZINC000019497418    0.0300
29     C29     0.0050   -0.0104    0.1755 C.3      1 ZINC000019497418    0.0900
30     H30     0.4728   -0.3525    1.0987 H        1 ZINC000019497418    0.0700
31     C31    -0.0108    1.5192    0.1471 C.3      1 ZINC000019497418   -0.1400
32     O32     0.7457   -0.5021   -0.9448 O.3      1 ZINC000019497418   -0.3800
33     H33     2.5876   -1.9568   -2.2112 H        1 ZINC000019497418    0.0600
34     H34     1.6043   -3.4356   -2.3313 H        1 ZINC000019497418    0.0700
35     H35     1.0805   -1.9490   -3.1583 H        1 ZINC000019497418    0.0600
36     H36    -1.1097   -2.1214   -2.0236 H        1 ZINC000019497418    0.0300
37     H37    -0.6099   -3.5659   -1.1101 H        1 ZINC000019497418    0.1000
38     H38    -3.3482   -2.1069    0.8475 H        1 ZINC000019497418    0.1100
39     H39    -3.2402   -2.3347   -0.9145 H        1 ZINC000019497418    0.0600
40     H40    -5.6674   -3.9273    0.7449 H        1 ZINC000019497418    0.0700
41     H41    -5.1147   -3.4547   -0.8910 H        1 ZINC000019497418    0.0700
42     H42    -7.0160   -5.3615   -0.6355 H        1 ZINC000019497418    0.0800
43     H43    -5.6940   -5.6001   -1.8270 H        1 ZINC000019497418    0.0700
44     H44    -5.9235   -6.7255    1.0213 H        1 ZINC000019497418    0.0800
45     H45    -5.4481   -7.5844   -0.4806 H        1 ZINC000019497418    0.0800
46     H46    -2.3405  -10.2121    1.3215 H        1 ZINC000019497418    0.1400
47     H47    -1.4765  -12.4740    1.7640 H        1 ZINC000019497418    0.1500
48     H48    -0.9441  -11.6170    5.7890 H        1 ZINC000019497418    0.1500
49     H49    -1.7825   -9.3226    5.4865 H        1 ZINC000019497418    0.1400
50     H50    -2.4245   -7.6034    5.1975 H        1 ZINC000019497418    0.1100
51     H51    -1.9156   -0.1520   -0.7927 H        1 ZINC000019497418    0.0400
52     H52    -1.9822   -0.2126    0.9857 H        1 ZINC000019497418    0.0900
53     H53    -0.5778    1.8926    0.9999 H        1 ZINC000019497418    0.0700
54     H54     1.0114    1.8942    0.1982 H        1 ZINC000019497418    0.0600
55     H55    -0.4773    1.8607   -0.7770 H        1 ZINC000019497418    0.0600
@<TRIPOS>BOND
1     1     2     1
2     1     33    1
3     1     34    1
4     1     35    1
5     2     3     1
6     2     32    1
7     2     4     1
8     4     5     1
9     4     36    1
10    4     37    1
11    5     6     1
12    5     28    1
13    6     7     1
14    6     38    1
15    6     39    1
16    7     8     2
17    7     9     am
18    9     13    1
19    9     10    1
20    10    11    1
21    10    40    1
22    10    41    1
23    11    12    1
24    11    42    1
25    11    43    1
26    12    13    1
27    12    44    1
28    12    45    1
29    13    14    1
30    13    15    1
31    15    27    1
32    15    16    2
33    16    17    1
34    17    18    1
35    17    24    2
36    18    23    ar
37    18    19    ar
38    19    20    ar
39    19    46    1
40    20    21    ar
41    20    47    1
42    21    22    ar
43    22    23    ar
44    22    48    1
45    23    49    1
46    24    25    1
47    24    50    1
48    25    26    2
49    25    27    1
50    28    29    1
51    28    51    1
52    28    52    1
53    29    30    1
54    29    31    1
55    29    32    1
56    31    53    1
57    31    54    1
58    31    55    1
@<TRIPOS>SUBSTRUCTURE
1   ZINC000019497418 1     RESIDUE    1   A     ZIN   1

@<TRIPOS>MOLECULE
ZINC000019497418
57    60    1     0     0
SMALL
USER_CHARGES
@<TRIPOS>ATOM
1      C1     -0.0187    1.5258    0.0104 C.3      1 ZINC000019497418   -0.1500
2      C2      0.0021   -0.0041    0.0020 C.3      1 ZINC000019497418    0.0700
3      H3      0.5122   -0.3563   -0.8946 H        1 ZINC000019497418    0.0900
4      C4     -1.4336   -0.5348    0.0152 C.3      1 ZINC000019497418   -0.0400
5      N5     -1.4101   -2.0032    0.0657 N.4      1 ZINC000019497418   -0.3700
6      H6     -0.9257   -2.3600   -0.7443 H        1 ZINC000019497418    0.4300
7      C7     -2.7870   -2.5150    0.0780 C.3      1 ZINC000019497418   -0.0300
8      C8     -2.7641   -4.0201    0.0059 C.2      1 ZINC000019497418    0.5300
9      O9     -1.7051   -4.6085   -0.0502 O.2      1 ZINC000019497418   -0.5100
10     N10    -3.9205   -4.7123    0.0037 N.am     1 ZINC000019497418   -0.5800
11     C11    -5.2724   -4.1270    0.0610 C.3      1 ZINC000019497418    0.0900
12     C12    -6.1946   -5.1959   -0.5766 C.3      1 ZINC000019497418   -0.1300
13     C13    -5.5494   -6.5102   -0.0633 C.3      1 ZINC000019497418   -0.1400
14     C14    -4.0429   -6.1759   -0.0625 C.3      1 ZINC000019497418    0.1900
15     H15    -3.5796   -6.5507   -0.9752 H        1 ZINC000019497418    0.1200
16     C16    -3.3808   -6.7968    1.1404 C.2      1 ZINC000019497418    0.3900
17     N17    -2.7276   -6.0319    1.9708 N.2      1 ZINC000019497418   -0.5200
18     C18    -2.1204   -6.5376    3.0575 C.2      1 ZINC000019497418    0.2100
19     C19    -1.3849   -5.6447    3.9852 C.ar     1 ZINC000019497418    0.0000
20     C20    -1.3143   -4.2680    3.7522 C.ar     1 ZINC000019497418   -0.1500
21     C21    -0.6189   -3.4733    4.6415 C.ar     1 ZINC000019497418    0.0900
22     N22    -0.0270   -3.9966    5.6973 N.ar     1 ZINC000019497418   -0.4700
23     C23    -0.0693   -5.2894    5.9538 C.ar     1 ZINC000019497418    0.1100
24     C24    -0.7480   -6.1555    5.1200 C.ar     1 ZINC000019497418   -0.1400
25     C25    -2.1865   -7.8969    3.3051 C.2      1 ZINC000019497418   -0.2600
26     C26    -2.8957   -8.7085    2.3986 C.2      1 ZINC000019497418    0.5200
27     O27    -2.9810   -9.9124    2.5767 O.2      1 ZINC000019497418   -0.5100
28     N28    -3.4841   -8.1270    1.3323 N.am     1 ZINC000019497418   -0.6200
29     C29    -0.7143   -2.4392    1.2843 C.3      1 ZINC000019497418   -0.0600
30     C30     0.7201   -1.9049    1.2688 C.3      1 ZINC000019497418    0.0800
31     H31     1.2550   -2.3228    0.4159 H        1 ZINC000019497418    0.0900
32     C32     1.4291   -2.3070    2.5635 C.3      1 ZINC000019497418   -0.1500
33     O33     0.6919   -0.4788    1.1616 O.3      1 ZINC000019497418   -0.3500
34     H34     1.0039    1.9031    0.0027 H        1 ZINC000019497418    0.0900
35     H35    -0.5459    1.8868   -0.8726 H        1 ZINC000019497418    0.0900
36     H36    -0.5289    1.8773    0.9072 H        1 ZINC000019497418    0.0800
37     H37    -1.9559   -0.1492    0.8907 H        1 ZINC000019497418    0.1400
38     H38    -1.9495   -0.2103   -0.8885 H        1 ZINC000019497418    0.1500
39     H39    -3.2825   -2.2028    0.9973 H        1 ZINC000019497418    0.1600
40     H40    -3.3297   -2.1184   -0.7801 H        1 ZINC000019497418    0.1600
41     H41    -5.5629   -3.9436    1.0954 H        1 ZINC000019497418    0.0900
42     H42    -5.3098   -3.2018   -0.5141 H        1 ZINC000019497418    0.0900
43     H43    -7.2178   -5.0954   -0.2144 H        1 ZINC000019497418    0.1000
44     H44    -6.1602   -5.1427   -1.6648 H        1 ZINC000019497418    0.0900
45     H45    -5.8971   -6.7430    0.9432 H        1 ZINC000019497418    0.0900
46     H46    -5.7588   -7.3345   -0.7451 H        1 ZINC000019497418    0.1100
47     H47    -1.7961   -3.8328    2.8892 H        1 ZINC000019497418    0.1300
48     H48    -0.5587   -2.4087    4.4700 H        1 ZINC000019497418    0.1600
49     H49     0.4300   -5.6752    6.8303 H        1 ZINC000019497418    0.1700
50     H50    -0.7789   -7.2132    5.3363 H        1 ZINC000019497418    0.1500
51     H51    -1.7058   -8.3253    4.1721 H        1 ZINC000019497418    0.1600
52     H52    -3.9772   -8.6697    0.6973 H        1 ZINC000019497418    0.4200
53     H53    -1.2368   -2.0528    2.1594 H        1 ZINC000019497418    0.1300
54     H54    -0.6962   -3.5283    1.3227 H        1 ZINC000019497418    0.1600
55     H55     1.4475   -3.3937    2.6453 H        1 ZINC000019497418    0.0800
56     H56     2.4504   -1.9262    2.5519 H        1 ZINC000019497418    0.0900
57     H57     0.8947   -1.8874    3.4159 H        1 ZINC000019497418    0.0800
@<TRIPOS>BOND
1     1     2     1
2     1     34    1
3     1     35    1
4     1     36    1
5     2     3     1
6     2     33    1
7     2     4     1
8     4     5     1
9     4     37    1
10    4     38    1
11    5     6     1
12    5     7     1
13    5     29    1
14    7     8     1
15    7     39    1
16    7     40    1
17    8     9     2
18    8     10    am
19    10    14    1
20    10    11    1
21    11    12    1
22    11    41    1
23    11    42    1
24    12    13    1
25    12    43    1
26    12    44    1
27    13    14    1
28    13    45    1
29    13    46    1
30    14    15    1
31    14    16    1
32    16    28    1
33    16    17    2
34    17    18    1
35    18    19    1
36    18    25    2
37    19    24    ar
38    19    20    ar
39    20    21    ar
40    20    47    1
41    21    22    ar
42    21    48    1
43    22    23    ar
44    23    24    ar
45    23    49    1
46    24    50    1
47    25    26    1
48    25    51    1
49    26    27    2
50    26    28    am
51    28    52    1
52    29    30    1
53    29    53    1
54    29    54    1
55    30    31    1
56    30    32    1
57    30    33    1
58    32    55    1
59    32    56    1
60    32    57    1
@<TRIPOS>SUBSTRUCTURE
1   ZINC000019497418 1     RESIDUE    1   A     ZIN   1

@<TRIPOS>MOLECULE
ZINC000019497418
57    60    1     0     0
SMALL
USER_CHARGES
@<TRIPOS>ATOM
1      C1     -0.0187    1.5268    0.0104 C.3      1 ZINC000019497418   -0.2000
2      C2      0.0021   -0.0041    0.0020 C.3      1 ZINC000019497418    0.0800
3      H3      0.5277   -0.3150   -0.9228 H        1 ZINC000019497418    0.1400
4      C4     -1.4211   -0.5462   -0.0797 C.3      1 ZINC000019497418   -0.0400
5      N5     -2.0762   -0.4728    1.2310 N.4      1 ZINC000019497418   -0.3700
6      H6     -2.1161    0.4806    1.5498 H        1 ZINC000019497418    0.4300
7      C7     -3.4489   -0.9922    1.1143 C.3      1 ZINC000019497418   -0.0300
8      C8     -4.1690   -0.8073    2.4252 C.2      1 ZINC000019497418    0.5300
9      O9     -3.5975   -0.2943    3.3639 O.2      1 ZINC000019497418   -0.5100
10     N10    -5.4481   -1.2120    2.5544 N.am     1 ZINC000019497418   -0.5800
11     C11    -6.2568   -1.8532    1.5017 C.3      1 ZINC000019497418    0.0900
12     C12    -7.3392   -2.6552    2.2664 C.3      1 ZINC000019497418   -0.1300
13     C13    -7.6458   -1.7082    3.4566 C.3      1 ZINC000019497418   -0.1400
14     C14    -6.2658   -1.0929    3.7703 C.3      1 ZINC000019497418    0.1900
15     H15    -5.7971   -1.6336    4.5926 H        1 ZINC000019497418    0.1200
16     C16    -6.4240    0.3602    4.1368 C.2      1 ZINC000019497418    0.3900
17     N17    -5.7719    1.2612    3.4554 N.2      1 ZINC000019497418   -0.5200
18     C18    -5.8796    2.5693    3.7432 C.2      1 ZINC000019497418    0.2100
19     C19    -5.1271    3.5723    2.9517 C.ar     1 ZINC000019497418   -0.0100
20     C20    -4.3013    3.1800    1.8941 C.ar     1 ZINC000019497418   -0.1400
21     C21    -3.6187    4.1469    1.1834 C.ar     1 ZINC000019497418    0.0900
22     N22    -3.7378    5.4237    1.4910 N.ar     1 ZINC000019497418   -0.4700
23     C23    -4.5058    5.8360    2.4805 C.ar     1 ZINC000019497418    0.1100
24     C24    -5.2286    4.9368    3.2388 C.ar     1 ZINC000019497418   -0.1400
25     C25    -6.6975    2.9737    4.7828 C.2      1 ZINC000019497418   -0.2600
26     C26    -7.3944    1.9881    5.5084 C.2      1 ZINC000019497418    0.5200
27     O27    -8.1274    2.2981    6.4330 O.2      1 ZINC000019497418   -0.5100
28     N28    -7.2397    0.6944    5.1566 N.am     1 ZINC000019497418   -0.6200
29     C29    -1.3284   -1.2997    2.1846 C.3      1 ZINC000019497418   -0.0500
30     C30     0.0967   -0.7791    2.3405 C.3      1 ZINC000019497418    0.0800
31     H31     0.6814   -1.5659    2.8572 H        1 ZINC000019497418    0.1400
32     C32     0.1092    0.4545    3.2471 C.3      1 ZINC000019497418   -0.1900
33     O33     0.7200   -0.5138    1.1036 O.3      1 ZINC000019497418   -0.3500
34     H34     1.0039    1.9041    0.0027 H        1 ZINC000019497418    0.0900
35     H35    -0.5459    1.8879   -0.8726 H        1 ZINC000019497418    0.0800
36     H36    -0.5289    1.8783    0.9072 H        1 ZINC000019497418    0.0600
37     H37    -1.9939    0.0404   -0.8022 H        1 ZINC000019497418    0.1500
38     H38    -1.3971   -1.5863   -0.4135 H        1 ZINC000019497418    0.1400
39     H39    -3.9771   -0.4501    0.3300 H        1 ZINC000019497418    0.1600
40     H40    -3.4161   -2.0526    0.8642 H        1 ZINC000019497418    0.1600
41     H41    -6.7214   -1.0982    0.8675 H        1 ZINC000019497418    0.0900
42     H42    -5.6391   -2.5238    0.9043 H        1 ZINC000019497418    0.0900
43     H43    -8.2244   -2.8048    1.6482 H        1 ZINC000019497418    0.1000
44     H44    -6.9441   -3.6085    2.6174 H        1 ZINC000019497418    0.0900
45     H45    -8.3580   -0.9373    3.1625 H        1 ZINC000019497418    0.0900
46     H46    -8.0175   -2.2721    4.3122 H        1 ZINC000019497418    0.1100
47     H47    -4.1985    2.1361    1.6372 H        1 ZINC000019497418    0.1300
48     H48    -2.9783    3.8537    0.3647 H        1 ZINC000019497418    0.1600
49     H49    -4.5739    6.8918    2.6977 H        1 ZINC000019497418    0.1700
50     H50    -5.8559    5.2815    4.0475 H        1 ZINC000019497418    0.1500
51     H51    -6.7990    4.0196    5.0322 H        1 ZINC000019497418    0.1600
52     H52    -7.7118    0.0015    5.6444 H        1 ZINC000019497418    0.4200
53     H53    -1.8328   -1.2780    3.1536 H        1 ZINC000019497418    0.1600
54     H54    -1.3031   -2.3313    1.8257 H        1 ZINC000019497418    0.1400
55     H55    -0.2840    0.1883    4.2283 H        1 ZINC000019497418    0.0800
56     H56     1.1314    0.8181    3.3518 H        1 ZINC000019497418    0.0900
57     H57    -0.5109    1.2353    2.8068 H        1 ZINC000019497418    0.0500
@<TRIPOS>BOND
1     1     2     1
2     1     34    1
3     1     35    1
4     1     36    1
5     2     3     1
6     2     33    1
7     2     4     1
8     4     5     1
9     4     37    1
10    4     38    1
11    5     6     1
12    5     7     1
13    5     29    1
14    7     8     1
15    7     39    1
16    7     40    1
17    8     9     2
18    8     10    am
19    10    14    1
20    10    11    1
21    11    12    1
22    11    41    1
23    11    42    1
24    12    13    1
25    12    43    1
26    12    44    1
27    13    14    1
28    13    45    1
29    13    46    1
30    14    15    1
31    14    16    1
32    16    28    1
33    16    17    2
34    17    18    1
35    18    19    1
36    18    25    2
37    19    24    ar
38    19    20    ar
39    20    21    ar
40    20    47    1
41    21    22    ar
42    21    48    1
43    22    23    ar
44    23    24    ar
45    23    49    1
46    24    50    1
47    25    26    1
48    25    51    1
49    26    27    2
50    26    28    am
51    28    52    1
52    29    30    1
53    29    53    1
54    29    54    1
55    30    31    1
56    30    32    1
57    30    33    1
58    32    55    1
59    32    56    1
60    32    57    1
@<TRIPOS>SUBSTRUCTURE
1   ZINC000019497418 1     RESIDUE    1   A     ZIN   1
@<TRIPOS>MOLECULE
ZINC000019520450
57    60    1     0     0
SMALL
USER_CHARGES
@<TRIPOS>ATOM
1      C1      4.1530   -4.2913   -4.0173 C.3      1 ZINC000019520450   -0.1500
2      C2      3.1009   -4.3633   -2.9088 C.3      1 ZINC000019520450   -0.6300
3      S3      3.6014   -5.5999   -1.6796 S.o2     1 ZINC000019520450    2.6100
4      O4      3.5384   -6.9071   -2.2331 O.2      1 ZINC000019520450   -0.9500
5      O5      4.7507   -5.1599   -0.9690 O.2      1 ZINC000019520450   -0.9500
6      N6      2.3895   -5.5752   -0.5514 N.am     1 ZINC000019520450   -1.0000
7      C7      2.4418   -4.6712    0.6100 C.3      1 ZINC000019520450    0.1200
8      C8      1.2691   -3.6972    0.4974 C.3      1 ZINC000019520450   -0.0700
9      C9     -0.0039   -4.4283    0.1719 C.2      1 ZINC000019520450   -0.2400
10     C10    -0.0338   -5.6708   -0.3667 C.2      1 ZINC000019520450    0.1700
11     C11     1.2168   -6.4486   -0.6714 C.3      1 ZINC000019520450    0.1800
12     N12    -1.2147   -6.2432   -0.6466 N.2      1 ZINC000019520450   -0.5300
13     C13    -2.3470   -5.6449   -0.4023 C.2      1 ZINC000019520450    0.4300
14     C14    -3.6391   -6.3430   -0.7401 C.3      1 ZINC000019520450    0.1900
15     H15    -3.4318   -7.3701   -1.0406 H        1 ZINC000019520450    0.1200
16     C16    -4.5589   -6.3419    0.4849 C.3      1 ZINC000019520450   -0.1400
17     C17    -5.9191   -6.9265    0.0971 C.3      1 ZINC000019520450   -0.1200
18     C18    -6.5589   -6.0575   -0.9882 C.3      1 ZINC000019520450   -0.1400
19     C19    -5.6618   -6.0554   -2.2299 C.3      1 ZINC000019520450    0.1000
20     N20    -4.3092   -5.6341   -1.8389 N.am     1 ZINC000019520450   -0.6100
21     C21    -3.6976   -4.6140   -2.4726 C.2      1 ZINC000019520450    0.5000
22     O22    -2.5462   -4.3392   -2.2087 O.2      1 ZINC000019520450   -0.5000
23     C23    -4.4444   -3.8147   -3.5092 C.3      1 ZINC000019520450    0.0700
24     H24    -5.3610   -3.4135   -3.0768 H        1 ZINC000019520450    0.1100
25     C25    -4.7848   -4.7128   -4.7178 C.3      1 ZINC000019520450   -0.1500
26     C26    -4.5539   -3.7532   -5.9169 C.3      1 ZINC000019520450   -0.1500
27     C27    -3.3705   -2.9033   -5.3898 C.3      1 ZINC000019520450    0.0500
28     O28    -3.6207   -2.7428   -3.9825 O.3      1 ZINC000019520450   -0.3500
29     N29    -2.3848   -4.4149    0.1468 N.am     1 ZINC000019520450   -0.6100
30     C30    -1.2330   -3.7805    0.4438 C.2      1 ZINC000019520450    0.5400
31     O31    -1.2496   -2.6662    0.9397 O.2      1 ZINC000019520450   -0.5400
32     H32     5.1142   -4.0086   -3.5882 H        1 ZINC000019520450    0.0700
33     H33     4.2420   -5.2657   -4.4976 H        1 ZINC000019520450    0.0700
34     H34     3.8522   -3.5483   -4.7559 H        1 ZINC000019520450    0.0800
35     H35     3.0119   -3.3889   -2.4285 H        1 ZINC000019520450    0.1300
36     H36     2.1397   -4.6460   -3.3380 H        1 ZINC000019520450    0.1300
37     H37     2.3555   -5.2479    1.5309 H        1 ZINC000019520450    0.0800
38     H38     3.3818   -4.1192    0.6060 H        1 ZINC000019520450    0.1100
39     H39     1.1482   -3.1706    1.4440 H        1 ZINC000019520450    0.0900
40     H40     1.4785   -2.9736   -0.2904 H        1 ZINC000019520450    0.0800
41     H41     1.1588   -6.8461   -1.6847 H        1 ZINC000019520450    0.1100
42     H42     1.3128   -7.2725    0.0358 H        1 ZINC000019520450    0.1000
43     H43    -4.1142   -6.9479    1.2743 H        1 ZINC000019520450    0.0900
44     H44    -4.6902   -5.3199    0.8404 H        1 ZINC000019520450    0.0700
45     H45    -5.7843   -7.9396   -0.2816 H        1 ZINC000019520450    0.0700
46     H46    -6.5675   -6.9496    0.9729 H        1 ZINC000019520450    0.0800
47     H47    -7.5378   -6.4611   -1.2472 H        1 ZINC000019520450    0.0900
48     H48    -6.6713   -5.0382   -0.6188 H        1 ZINC000019520450    0.0700
49     H49    -5.6215   -7.0589   -2.6533 H        1 ZINC000019520450    0.0800
50     H50    -6.0618   -5.3607   -2.9685 H        1 ZINC000019520450    0.0900
51     H51    -4.1095   -5.5669   -4.7689 H        1 ZINC000019520450    0.0800
52     H52    -5.8237   -5.0402   -4.6775 H        1 ZINC000019520450    0.1000
53     H53    -4.2722   -4.3055   -6.8135 H        1 ZINC000019520450    0.0900
54     H54    -5.4320   -3.1337   -6.0991 H        1 ZINC000019520450    0.0900
55     H55    -2.4279   -3.4268   -5.5498 H        1 ZINC000019520450    0.0600
56     H56    -3.3531   -1.9316   -5.8834 H        1 ZINC000019520450    0.0900
57     H57    -3.2368   -3.9878    0.3271 H        1 ZINC000019520450    0.4100
@<TRIPOS>BOND
1     1     2     1
2     1     32    1
3     1     33    1
4     1     34    1
5     2     3     1
6     2     35    1
7     2     36    1
8     3     4     2
9     3     5     2
10    3     6     am
11    6     11    1
12    6     7     1
13    7     8     1
14    7     37    1
15    7     38    1
16    8     9     1
17    8     39    1
18    8     40    1
19    9     30    1
20    9     10    2
21    10    11    1
22    10    12    1
23    11    41    1
24    11    42    1
25    12    13    2
26    13    14    1
27    13    29    1
28    14    15    1
29    14    20    1
30    14    16    1
31    16    17    1
32    16    43    1
33    16    44    1
34    17    18    1
35    17    45    1
36    17    46    1
37    18    19    1
38    18    47    1
39    18    48    1
40    19    20    1
41    19    49    1
42    19    50    1
43    20    21    am
44    21    22    2
45    21    23    1
46    23    24    1
47    23    28    1
48    23    25    1
49    25    26    1
50    25    51    1
51    25    52    1
52    26    27    1
53    26    53    1
54    26    54    1
55    27    28    1
56    27    55    1
57    27    56    1
58    29    30    am
59    29    57    1
60    30    31    2
@<TRIPOS>SUBSTRUCTURE
1   ZINC000019520450 1     RESIDUE    1   A     ZIN   1

@<TRIPOS>MOLECULE
ZINC000019520450
56    59    1     0     0
SMALL
USER_CHARGES
@<TRIPOS>ATOM
1      C1     -3.3574    0.0723   -2.2129 C.3      1 ZINC000019520450   -0.1400
2      C2     -2.4771   -1.0542   -1.6680 C.3      1 ZINC000019520450   -0.6400
3      S3     -1.1543   -0.3480   -0.6472 S.o2     1 ZINC000019520450    2.6200
4      O4     -0.2380    0.3807   -1.4526 O.2      1 ZINC000019520450   -0.9600
5      O5     -1.6891    0.2126    0.5441 O.2      1 ZINC000019520450   -0.9600
6      N6     -0.2878   -1.6601   -0.1278 N.am     1 ZINC000019520450   -0.9900
7      C7     -0.6283   -2.3566    1.1243 C.3      1 ZINC000019520450    0.1200
8      C8     -1.0503   -3.7815    0.7666 C.3      1 ZINC000019520450   -0.0500
9      C9     -0.0764   -4.4018   -0.1966 C.2      1 ZINC000019520450   -0.3200
10     C10     0.7784   -3.6811   -0.9611 C.2      1 ZINC000019520450    0.1600
11     C11     0.8465   -2.1800   -0.8995 C.3      1 ZINC000019520450    0.1900
12     N12     1.6009   -4.3138   -1.8118 N.2      1 ZINC000019520450   -0.6300
13     C13     1.6166   -5.6130   -1.9190 C.2      1 ZINC000019520450    0.3800
14     C14     2.5651   -6.2623   -2.8936 C.3      1 ZINC000019520450    0.2300
15     H15     3.2370   -5.5096   -3.3061 H        1 ZINC000019520450    0.0800
16     C16     3.3816   -7.3408   -2.1747 C.3      1 ZINC000019520450   -0.1200
17     C17     4.2411   -8.0897   -3.1957 C.3      1 ZINC000019520450   -0.1200
18     C18     3.3360   -8.7736   -4.2230 C.3      1 ZINC000019520450   -0.1400
19     C19     2.5190   -7.7113   -4.9652 C.3      1 ZINC000019520450    0.1100
20     N20     1.8013   -6.8895   -3.9808 N.am     1 ZINC000019520450   -0.6100
21     C21     0.4674   -6.7188   -4.0707 C.2      1 ZINC000019520450    0.5000
22     O22    -0.0992   -5.9593   -3.3136 O.2      1 ZINC000019520450   -0.4700
23     C23    -0.3201   -7.4716   -5.1119 C.3      1 ZINC000019520450    0.0700
24     H24    -0.1454   -8.5422   -5.0050 H        1 ZINC000019520450    0.1000
25     C25     0.1028   -7.0103   -6.5232 C.3      1 ZINC000019520450   -0.1500
26     C26    -1.2523   -6.9848   -7.2815 C.3      1 ZINC000019520450   -0.1500
27     C27    -2.2148   -6.5469   -6.1490 C.3      1 ZINC000019520450    0.0500
28     O28    -1.7165   -7.1898   -4.9629 O.3      1 ZINC000019520450   -0.3500
29     N29     0.8019   -6.3869   -1.1752 N.pl3    1 ZINC000019520450   -0.6400
30     C30    -0.0554   -5.8131   -0.3074 C.2      1 ZINC000019520450    0.5000
31     O31    -0.8008   -6.4990    0.3722 O.2      1 ZINC000019520450   -0.6300
32     H32    -2.7515    0.7462   -2.8186 H        1 ZINC000019520450    0.0700
33     H33    -4.1522   -0.3521   -2.8263 H        1 ZINC000019520450    0.0800
34     H34    -3.7956    0.6253   -1.3821 H        1 ZINC000019520450    0.0700
35     H35    -3.0830   -1.7281   -1.0623 H        1 ZINC000019520450    0.1300
36     H36    -2.0389   -1.6072   -2.4988 H        1 ZINC000019520450    0.1300
37     H37     0.2418   -2.3830    1.7803 H        1 ZINC000019520450    0.0700
38     H38    -1.4506   -1.8418    1.6212 H        1 ZINC000019520450    0.0900
39     H39    -1.0885   -4.3828    1.6749 H        1 ZINC000019520450    0.0700
40     H40    -2.0401   -3.7586    0.3108 H        1 ZINC000019520450    0.0500
41     H41     0.8180   -1.7738   -1.9106 H        1 ZINC000019520450    0.0900
42     H42     1.7749   -1.8786   -0.4144 H        1 ZINC000019520450    0.0800
43     H43     4.0258   -6.8734   -1.4299 H        1 ZINC000019520450    0.0700
44     H44     2.7063   -8.0416   -1.6838 H        1 ZINC000019520450    0.0800
45     H45     4.8988   -7.3844   -3.7037 H        1 ZINC000019520450    0.0600
46     H46     4.8415   -8.8414   -2.6833 H        1 ZINC000019520450    0.0600
47     H47     3.9478   -9.3260   -4.9362 H        1 ZINC000019520450    0.0700
48     H48     2.6611   -9.4609   -3.7129 H        1 ZINC000019520450    0.0700
49     H49     3.1873   -7.0781   -5.5488 H        1 ZINC000019520450    0.0700
50     H50     1.8026   -8.1978   -5.6271 H        1 ZINC000019520450    0.0800
51     H51     0.5472   -6.0156   -6.4893 H        1 ZINC000019520450    0.0800
52     H52     0.7876   -7.7270   -6.9766 H        1 ZINC000019520450    0.0900
53     H53    -1.2369   -6.2528   -8.0890 H        1 ZINC000019520450    0.0800
54     H54    -1.5114   -7.9750   -7.6563 H        1 ZINC000019520450    0.0800
55     H55    -2.1920   -5.4635   -6.0310 H        1 ZINC000019520450    0.0600
56     H56    -3.2291   -6.8836   -6.3633 H        1 ZINC000019520450    0.0900
@<TRIPOS>BOND
1     1     2     1
2     1     32    1
3     1     33    1
4     1     34    1
5     2     3     1
6     2     35    1
7     2     36    1
8     3     4     2
9     3     5     2
10    3     6     am
11    6     11    1
12    6     7     1
13    7     8     1
14    7     37    1
15    7     38    1
16    8     9     1
17    8     39    1
18    8     40    1
19    9     30    1
20    9     10    2
21    10    11    1
22    10    12    1
23    11    41    1
24    11    42    1
25    12    13    2
26    13    14    1
27    13    29    1
28    14    15    1
29    14    20    1
30    14    16    1
31    16    17    1
32    16    43    1
33    16    44    1
34    17    18    1
35    17    45    1
36    17    46    1
37    18    19    1
38    18    47    1
39    18    48    1
40    19    20    1
41    19    49    1
42    19    50    1
43    20    21    am
44    21    22    2
45    21    23    1
46    23    24    1
47    23    28    1
48    23    25    1
49    25    26    1
50    25    51    1
51    25    52    1
52    26    27    1
53    26    53    1
54    26    54    1
55    27    28    1
56    27    55    1
57    27    56    1
58    29    30    1
59    30    31    2
@<TRIPOS>SUBSTRUCTURE
1   ZINC000019520450 1     RESIDUE    1   A     ZIN   1
@<TRIPOS>MOLECULE
ZINC000019593170
53    55    1     0     0
SMALL
USER_CHARGES
@<TRIPOS>ATOM
1      C1      0.0203    1.4245    0.0314 C.3      1 ZINC000019593170    0.0300
2      O2      0.0391   -0.0044    0.0230 O.3      1 ZINC000019593170   -0.3900
3      C3      0.6730   -0.5706   -1.1257 C.3      1 ZINC000019593170    0.0700
4      C4      0.6351   -2.0970   -1.0287 C.3      1 ZINC000019593170   -0.1300
5      C5      1.3036   -2.6941   -2.2401 C.2      1 ZINC000019593170    0.5200
6      O6      1.7648   -1.9701   -3.0968 O.2      1 ZINC000019593170   -0.5200
7      N7      1.3888   -4.0328   -2.3716 N.am     1 ZINC000019593170   -0.6100
8      C8      0.9143   -4.9217   -1.3023 C.3      1 ZINC000019593170    0.1100
9      C9      2.0435   -5.8857   -0.9250 C.3      1 ZINC000019593170   -0.1400
10     C10     2.5269   -6.6151   -2.1806 C.3      1 ZINC000019593170   -0.1200
11     C11     3.0751   -5.5981   -3.1842 C.3      1 ZINC000019593170   -0.1300
12     C12     1.9524   -4.6310   -3.5895 C.3      1 ZINC000019593170    0.1900
13     H13     1.1770   -5.1761   -4.1277 H        1 ZINC000019593170    0.1200
14     C14     2.5139   -3.5470   -4.4731 C.2      1 ZINC000019593170    0.4300
15     N15     1.9243   -3.2749   -5.6037 N.2      1 ZINC000019593170   -0.5400
16     C16     2.3773   -2.3188   -6.4289 C.2      1 ZINC000019593170    0.1800
17     C17     3.4715   -1.5995   -6.0825 C.2      1 ZINC000019593170   -0.2400
18     C18     4.0358   -0.4917   -6.9281 C.3      1 ZINC000019593170   -0.0700
19     C19     3.5621   -0.6175   -8.3759 C.3      1 ZINC000019593170    0.1200
20     N20     2.1095   -0.8587   -8.3555 N.am     1 ZINC000019593170   -1.0000
21     S21     1.0468    0.2259   -9.0165 S.o2     1 ZINC000019593170    2.6100
22     C22     0.8722   -0.3057  -10.7420 C.3      1 ZINC000019593170   -0.6700
23     O23    -0.1631    0.0100   -8.3033 O.2      1 ZINC000019593170   -0.9500
24     O24     1.7273    1.4713   -8.9448 O.2      1 ZINC000019593170   -0.9500
25     C25     1.6418   -2.0988   -7.7265 C.3      1 ZINC000019593170    0.1700
26     C26     4.1183   -1.9010   -4.8598 C.2      1 ZINC000019593170    0.5400
27     O27     5.1153   -1.2867   -4.5184 O.2      1 ZINC000019593170   -0.5400
28     N28     3.6121   -2.8743   -4.0765 N.am     1 ZINC000019593170   -0.6100
29     H29     1.0428    1.8015    0.0097 H        1 ZINC000019593170    0.0400
30     H30    -0.5188    1.7859   -0.8443 H        1 ZINC000019593170    0.0400
31     H31    -0.4774    1.7760    0.9352 H        1 ZINC000019593170    0.0900
32     H32     0.1474   -0.2506   -2.0254 H        1 ZINC000019593170    0.0600
33     H33     1.7090   -0.2350   -1.1715 H        1 ZINC000019593170    0.0600
34     H34     1.1607   -2.4170   -0.1290 H        1 ZINC000019593170    0.1100
35     H35    -0.4009   -2.4326   -0.9830 H        1 ZINC000019593170    0.1100
36     H36     0.6339   -4.3287   -0.4317 H        1 ZINC000019593170    0.1000
37     H37     0.0522   -5.4885   -1.6540 H        1 ZINC000019593170    0.0800
38     H38     2.8703   -5.3248   -0.4892 H        1 ZINC000019593170    0.0700
39     H39     1.6748   -6.6125   -0.2013 H        1 ZINC000019593170    0.0900
40     H40     3.3137   -7.3196   -1.9110 H        1 ZINC000019593170    0.0800
41     H41     1.6938   -7.1558   -2.6298 H        1 ZINC000019593170    0.0700
42     H42     3.8921   -5.0399   -2.7271 H        1 ZINC000019593170    0.0700
43     H43     3.4406   -6.1203   -4.0685 H        1 ZINC000019593170    0.0900
44     H44     3.7098    0.4677   -6.5264 H        1 ZINC000019593170    0.0800
45     H45     5.1244   -0.5394   -6.9017 H        1 ZINC000019593170    0.0900
46     H46     3.7754    0.3051   -8.9156 H        1 ZINC000019593170    0.1000
47     H47     4.0682   -1.4536   -8.8585 H        1 ZINC000019593170    0.0800
48     H48     0.4849   -1.3242  -10.7710 H        1 ZINC000019593170    0.1300
49     H49     0.1817    0.3605  -11.2593 H        1 ZINC000019593170    0.1300
50     H50     1.8450   -0.2728  -11.2326 H        1 ZINC000019593170    0.1300
51     H51     1.8289   -2.9382   -8.3963 H        1 ZINC000019593170    0.1000
52     H52     0.5724   -2.0245   -7.5291 H        1 ZINC000019593170    0.1200
53     H53     4.0405   -3.0943   -3.2344 H        1 ZINC000019593170    0.4100
@<TRIPOS>BOND
1     1     2     1
2     1     29    1
3     1     30    1
4     1     31    1
5     2     3     1
6     3     4     1
7     3     32    1
8     3     33    1
9     4     5     1
10    4     34    1
11    4     35    1
12    5     6     2
13    5     7     am
14    7     12    1
15    7     8     1
16    8     9     1
17    8     36    1
18    8     37    1
19    9     10    1
20    9     38    1
21    9     39    1
22    10    11    1
23    10    40    1
24    10    41    1
25    11    12    1
26    11    42    1
27    11    43    1
28    12    13    1
29    12    14    1
30    14    28    1
31    14    15    2
32    15    16    1
33    16    25    1
34    16    17    2
35    17    18    1
36    17    26    1
37    18    19    1
38    18    44    1
39    18    45    1
40    19    20    1
41    19    46    1
42    19    47    1
43    20    21    am
44    20    25    1
45    21    22    1
46    21    23    2
47    21    24    2
48    22    48    1
49    22    49    1
50    22    50    1
51    25    51    1
52    25    52    1
53    26    27    2
54    26    28    am
55    28    53    1
@<TRIPOS>SUBSTRUCTURE
1   ZINC000019593170 1     RESIDUE    1   A     ZIN   1

@<TRIPOS>MOLECULE
ZINC000019593170
52    54    1     0     0
SMALL
USER_CHARGES
@<TRIPOS>ATOM
1      C1     -1.2225    0.4115    4.5446 C.3      1 ZINC000019593170    0.0300
2      O2     -1.0087   -0.8487    3.9057 O.3      1 ZINC000019593170   -0.4000
3      C3     -2.0929   -1.2712    3.0762 C.3      1 ZINC000019593170    0.0800
4      C4     -1.7564   -2.6246    2.4470 C.3      1 ZINC000019593170   -0.1300
5      C5     -2.8998   -3.0701    1.5723 C.2      1 ZINC000019593170    0.5100
6      O6     -3.8867   -2.3737    1.4629 O.2      1 ZINC000019593170   -0.4800
7      N7     -2.8257   -4.2424    0.9115 N.am     1 ZINC000019593170   -0.6100
8      C8     -1.6052   -5.0584    0.9692 C.3      1 ZINC000019593170    0.1100
9      C9     -1.1484   -5.3641   -0.4607 C.3      1 ZINC000019593170   -0.1300
10     C10    -2.3007   -6.0106   -1.2329 C.3      1 ZINC000019593170   -0.1200
11     C11    -3.4807   -5.0384   -1.3002 C.3      1 ZINC000019593170   -0.1200
12     C12    -3.9660   -4.7317    0.1247 C.3      1 ZINC000019593170    0.2300
13     H13    -4.3668   -5.6386    0.5773 H        1 ZINC000019593170    0.0800
14     C14    -5.0388   -3.6745    0.0764 C.2      1 ZINC000019593170    0.3700
15     N15    -6.1626   -3.8753    0.7062 N.2      1 ZINC000019593170   -0.6300
16     C16    -7.1517   -2.9686    0.7008 C.2      1 ZINC000019593170    0.1600
17     C17    -6.9850   -1.8007    0.0353 C.2      1 ZINC000019593170   -0.3200
18     C18    -8.0243   -0.7148   -0.0045 C.3      1 ZINC000019593170   -0.0500
19     C19    -9.4052   -1.2709    0.3422 C.3      1 ZINC000019593170    0.1300
20     N20    -9.2646   -2.1091    1.5448 N.am     1 ZINC000019593170   -1.0000
21     S21   -10.0255   -1.7164    2.9623 S.o2     1 ZINC000019593170    2.6100
22     C22   -11.6339   -2.5489    2.8584 C.3      1 ZINC000019593170   -0.6800
23     O23    -9.2196   -2.3126    3.9695 O.2      1 ZINC000019593170   -0.9500
24     O24   -10.1884   -0.3065    2.8936 O.2      1 ZINC000019593170   -0.9600
25     C25    -8.4237   -3.3064    1.4363 C.3      1 ZINC000019593170    0.1800
26     C26    -5.7690   -1.5860   -0.6572 C.2      1 ZINC000019593170    0.5000
27     O27    -5.5852   -0.5540   -1.2810 O.2      1 ZINC000019593170   -0.6400
28     N28    -4.8155   -2.5378   -0.6122 N.pl3    1 ZINC000019593170   -0.6300
29     H29    -0.3549    0.6610    5.1554 H        1 ZINC000019593170    0.0800
30     H30    -1.3679    1.1825    3.7879 H        1 ZINC000019593170    0.0400
31     H31    -2.1077    0.3523    5.1778 H        1 ZINC000019593170    0.0400
32     H32    -2.9962   -1.3653    3.6790 H        1 ZINC000019593170    0.0600
33     H33    -2.2564   -0.5351    2.2891 H        1 ZINC000019593170    0.0600
34     H34    -0.8531   -2.5305    1.8442 H        1 ZINC000019593170    0.0900
35     H35    -1.5929   -3.3606    3.2341 H        1 ZINC000019593170    0.0900
36     H36    -0.8229   -4.5092    1.4932 H        1 ZINC000019593170    0.0800
37     H37    -1.8136   -5.9910    1.4935 H        1 ZINC000019593170    0.0700
38     H38    -0.8539   -4.4380   -0.9543 H        1 ZINC000019593170    0.0700
39     H39    -0.3000   -6.0479   -0.4332 H        1 ZINC000019593170    0.0700
40     H40    -1.9706   -6.2516   -2.2433 H        1 ZINC000019593170    0.0600
41     H41    -2.6111   -6.9237   -0.7250 H        1 ZINC000019593170    0.0600
42     H42    -3.1643   -4.1153   -1.7860 H        1 ZINC000019593170    0.0800
43     H43    -4.2924   -5.4903   -1.8703 H        1 ZINC000019593170    0.0700
44     H44    -7.7596    0.0613    0.7137 H        1 ZINC000019593170    0.0500
45     H45    -8.0527   -0.2822   -1.0045 H        1 ZINC000019593170    0.0700
46     H46   -10.0938   -0.4502    0.5429 H        1 ZINC000019593170    0.0800
47     H47    -9.7790   -1.8732   -0.4858 H        1 ZINC000019593170    0.0700
48     H48   -11.4811   -3.6239    2.7628 H        1 ZINC000019593170    0.1300
49     H49   -12.2088   -2.3424    3.7611 H        1 ZINC000019593170    0.1200
50     H50   -12.1781   -2.1805    1.9888 H        1 ZINC000019593170    0.1300
51     H51    -8.9635   -4.0805    0.8908 H        1 ZINC000019593170    0.0700
52     H52    -8.1799   -3.6700    2.4345 H        1 ZINC000019593170    0.1000
@<TRIPOS>BOND
1     1     2     1
2     1     29    1
3     1     30    1
4     1     31    1
5     2     3     1
6     3     4     1
7     3     32    1
8     3     33    1
9     4     5     1
10    4     34    1
11    4     35    1
12    5     6     2
13    5     7     am
14    7     12    1
15    7     8     1
16    8     9     1
17    8     36    1
18    8     37    1
19    9     10    1
20    9     38    1
21    9     39    1
22    10    11    1
23    10    40    1
24    10    41    1
25    11    12    1
26    11    42    1
27    11    43    1
28    12    13    1
29    12    14    1
30    14    28    1
31    14    15    2
32    15    16    1
33    16    25    1
34    16    17    2
35    17    18    1
36    17    26    1
37    18    19    1
38    18    44    1
39    18    45    1
40    19    20    1
41    19    46    1
42    19    47    1
43    20    21    am
44    20    25    1
45    21    22    1
46    21    23    2
47    21    24    2
48    22    48    1
49    22    49    1
50    22    50    1
51    25    51    1
52    25    52    1
53    26    27    2
54    26    28    1
@<TRIPOS>SUBSTRUCTURE
1   ZINC000019593170 1     RESIDUE    1   A     ZIN   1
@<TRIPOS>MOLECULE
ZINC000020207027
49    51    1     0     0
SMALL
USER_CHARGES
@<TRIPOS>ATOM
1      C1      3.8561    0.3647   -0.7371 C.3      1 ZINC000020207027   -0.1500
2      C2      3.0137   -0.9074   -0.6244 C.3      1 ZINC000020207027    0.0500
3      O3      2.6797   -1.1378    0.7458 O.3      1 ZINC000020207027   -0.3000
4      C4      1.9278   -2.2369    1.0217 C.ar     1 ZINC000020207027    0.1000
5      C5      1.5283   -3.0730   -0.0002 C.ar     1 ZINC000020207027   -0.1600
6      C6      0.7530   -4.2056    0.2884 C.ar     1 ZINC000020207027   -0.0700
7      C7      0.3255   -5.0982   -0.7914 C.2      1 ZINC000020207027    0.0700
8      C8      0.3774   -6.4628   -0.6175 C.2      1 ZINC000020207027   -0.2600
9      C9     -0.2159   -7.4085   -1.6067 C.2      1 ZINC000020207027    0.4400
10     N10    -0.2650   -7.1699   -2.8892 N.2      1 ZINC000020207027   -0.6500
11     N11    -0.7177   -8.5861   -1.0166 N.pl3    1 ZINC000020207027   -0.4600
12     C12    -0.2338   -8.9764    0.2090 C.2      1 ZINC000020207027    0.3200
13     N13     0.6224   -8.3016    0.9548 N.2      1 ZINC000020207027   -0.5400
14     C14     1.0326   -7.0808    0.5622 C.2      1 ZINC000020207027    0.5400
15     O15     1.9153   -6.4946    1.1674 O.2      1 ZINC000020207027   -0.4300
16     S16    -0.9964  -10.4743    0.5419 S.3      1 ZINC000020207027    0.3900
17     N17    -1.9320  -10.4908   -0.8752 N.2      1 ZINC000020207027   -0.3700
18     C18    -1.6408   -9.4252   -1.5367 C.2      1 ZINC000020207027   -0.1800
19     S19    -2.4235   -9.0708   -3.0751 S.o2     1 ZINC000020207027    2.5000
20     O20    -3.5894   -9.8831   -3.0703 O.2      1 ZINC000020207027   -0.8900
21     O21    -2.5183   -7.6533   -3.1017 O.2      1 ZINC000020207027   -0.8800
22     C22    -1.2467   -9.6537   -4.3265 C.3      1 ZINC000020207027   -0.5700
23     C23    -1.8186   -9.3986   -5.7224 C.3      1 ZINC000020207027   -0.0800
24     C24    -0.7762   -9.7748   -6.7772 C.3      1 ZINC000020207027   -0.1400
25     C25    -3.0754  -10.2482   -5.9217 C.3      1 ZINC000020207027   -0.1900
26     C26     0.3890   -4.4805    1.6138 C.ar     1 ZINC000020207027   -0.0800
27     C27     0.7930   -3.6395    2.6263 C.ar     1 ZINC000020207027   -0.1100
28     C28     1.5657   -2.5214    2.3392 C.ar     1 ZINC000020207027    0.1000
29     O29     1.9609   -1.6965    3.3425 O.3      1 ZINC000020207027   -0.4800
30     H30     4.7702    0.2479   -0.1550 H        1 ZINC000020207027    0.0700
31     H31     4.1109    0.5404   -1.7822 H        1 ZINC000020207027    0.0800
32     H32     3.2874    1.2122   -0.3543 H        1 ZINC000020207027    0.0700
33     H33     2.0996   -0.7906   -1.2065 H        1 ZINC000020207027    0.0600
34     H34     3.5824   -1.7549   -1.0071 H        1 ZINC000020207027    0.0600
35     H35     1.8115   -2.8559   -1.0196 H        1 ZINC000020207027    0.1400
36     H36    -0.0304   -4.6858   -1.7239 H        1 ZINC000020207027    0.1500
37     H37     0.0962   -6.3419   -3.2427 H        1 ZINC000020207027    0.3800
38     H38    -0.3041   -9.1176   -4.2165 H        1 ZINC000020207027    0.1500
39     H39    -1.0747  -10.7219   -4.1939 H        1 ZINC000020207027    0.1400
40     H40    -2.0735   -8.3437   -5.8234 H        1 ZINC000020207027    0.0900
41     H41    -0.5214  -10.8297   -6.6762 H        1 ZINC000020207027    0.0600
42     H42    -1.1836   -9.5930   -7.7718 H        1 ZINC000020207027    0.0700
43     H43     0.1192   -9.1695   -6.6352 H        1 ZINC000020207027    0.0600
44     H44    -3.8181   -9.9802   -5.1703 H        1 ZINC000020207027    0.0700
45     H45    -3.4828  -10.0664   -6.9162 H        1 ZINC000020207027    0.0800
46     H46    -2.8206  -11.3032   -5.8207 H        1 ZINC000020207027    0.0700
47     H47    -0.2082   -5.3513    1.8407 H        1 ZINC000020207027    0.1200
48     H48     0.5117   -3.8520    3.6472 H        1 ZINC000020207027    0.1400
49     H49     2.8094   -1.9376    3.7388 H        1 ZINC000020207027    0.3900
@<TRIPOS>BOND
1     1     2     1
2     1     30    1
3     1     31    1
4     1     32    1
5     2     3     1
6     2     33    1
7     2     34    1
8     3     4     1
9     4     28    ar
10    4     5     ar
11    5     6     ar
12    5     35    1
13    6     7     1
14    6     26    ar
15    7     8     2
16    7     36    1
17    8     14    1
18    8     9     1
19    9     10    2
20    9     11    1
21    10    37    1
22    11    18    1
23    11    12    1
24    12    13    2
25    12    16    1
26    13    14    1
27    14    15    2
28    16    17    1
29    17    18    2
30    18    19    1
31    19    20    2
32    19    21    2
33    19    22    1
34    22    23    1
35    22    38    1
36    22    39    1
37    23    24    1
38    23    25    1
39    23    40    1
40    24    41    1
41    24    42    1
42    24    43    1
43    25    44    1
44    25    45    1
45    25    46    1
46    26    27    ar
47    26    47    1
48    27    28    ar
49    27    48    1
50    28    29    1
51    29    49    1
@<TRIPOS>SUBSTRUCTURE
1   ZINC000020207027 1     RESIDUE    1   A     ZIN   1
@<TRIPOS>MOLECULE
ZINC000020208667
49    51    1     0     0
SMALL
USER_CHARGES
@<TRIPOS>ATOM
1      C1     -2.6438    0.4636    2.1569 C.3      1 ZINC000020208667   -0.1500
2      C2     -2.0078   -0.8143    1.6061 C.3      1 ZINC000020208667    0.0500
3      O3     -0.6945   -0.9649    2.1488 O.3      1 ZINC000020208667   -0.3000
4      C4      0.0135   -2.0582    1.7579 C.ar     1 ZINC000020208667    0.1000
5      C5     -0.5411   -2.9576    0.8711 C.ar     1 ZINC000020208667   -0.1500
6      C6      0.1924   -4.0838    0.4701 C.ar     1 ZINC000020208667   -0.0700
7      C7     -0.3896   -5.0429   -0.4715 C.2      1 ZINC000020208667    0.0900
8      C8     -0.0753   -6.3799   -0.3749 C.2      1 ZINC000020208667   -0.2200
9      C9      0.7010   -6.9272    0.7736 C.2      1 ZINC000020208667    0.4500
10     N10     0.6315   -6.4389    1.9833 N.2      1 ZINC000020208667   -0.6100
11     N11     1.5170   -8.0238    0.4279 N.pl3    1 ZINC000020208667   -0.4200
12     N12     2.6047   -8.4779    1.1404 N.2      1 ZINC000020208667   -0.1100
13     C13     3.2238   -9.5359    0.7375 C.2      1 ZINC000020208667   -0.4700
14     S14     4.6209  -10.2994    1.4924 S.o2     1 ZINC000020208667    2.5100
15     O15     5.3355  -10.8738    0.4067 O.2      1 ZINC000020208667   -0.8900
16     O16     5.1964   -9.2705    2.2857 O.2      1 ZINC000020208667   -0.8900
17     C17     3.9140  -11.5957    2.5461 C.3      1 ZINC000020208667   -0.5900
18     C18     5.0412  -12.3400    3.2647 C.3      1 ZINC000020208667   -0.0900
19     C19     5.7542  -11.3836    4.2227 C.3      1 ZINC000020208667   -0.1900
20     C20     4.4557  -13.5116    4.0555 C.3      1 ZINC000020208667   -0.1400
21     S21     2.3820  -10.0647   -0.7316 S.3      1 ZINC000020208667    0.2500
22     C22     1.2164   -8.7391   -0.7023 C.2      1 ZINC000020208667    0.3600
23     N23     0.2531   -8.4713   -1.5637 N.2      1 ZINC000020208667   -0.5300
24     C24    -0.4949   -7.3625   -1.4052 C.2      1 ZINC000020208667    0.5500
25     O25    -1.4826   -7.1686   -2.0954 O.2      1 ZINC000020208667   -0.4400
26     C26     1.4848   -4.2881    0.9733 C.ar     1 ZINC000020208667   -0.0800
27     C27     2.0289   -3.3843    1.8579 C.ar     1 ZINC000020208667   -0.1100
28     C28     1.3029   -2.2666    2.2498 C.ar     1 ZINC000020208667    0.1000
29     O29     1.8456   -1.3794    3.1225 O.3      1 ZINC000020208667   -0.4800
30     H30    -2.0343    1.3227    1.8768 H        1 ZINC000020208667    0.0700
31     H31    -3.6456    0.5785    1.7430 H        1 ZINC000020208667    0.0800
32     H32    -2.7047    0.4001    3.2433 H        1 ZINC000020208667    0.0700
33     H33    -2.6174   -1.6734    1.8863 H        1 ZINC000020208667    0.0600
34     H34    -1.9470   -0.7508    0.5197 H        1 ZINC000020208667    0.0600
35     H35    -1.5374   -2.7953    0.4871 H        1 ZINC000020208667    0.1400
36     H36    -1.0654   -4.7013   -1.2416 H        1 ZINC000020208667    0.1600
37     H37     1.1584   -6.8325    2.6962 H        1 ZINC000020208667    0.3600
38     H38     3.2500  -11.1433    3.2827 H        1 ZINC000020208667    0.1500
39     H39     3.3501  -12.2968    1.9308 H        1 ZINC000020208667    0.1500
40     H40     5.7534  -12.7169    2.5306 H        1 ZINC000020208667    0.0900
41     H41     5.0420  -11.0067    4.9568 H        1 ZINC000020208667    0.0700
42     H42     6.5572  -11.9139    4.7346 H        1 ZINC000020208667    0.0800
43     H43     6.1713  -10.5489    3.6593 H        1 ZINC000020208667    0.0700
44     H44     3.9477  -14.1929    3.3730 H        1 ZINC000020208667    0.0600
45     H45     5.2587  -14.0419    4.5674 H        1 ZINC000020208667    0.0700
46     H46     3.7435  -13.1347    4.7895 H        1 ZINC000020208667    0.0600
47     H47     2.0531   -5.1541    0.6675 H        1 ZINC000020208667    0.1200
48     H48     3.0246   -3.5425    2.2450 H        1 ZINC000020208667    0.1400
49     H49     2.3418   -0.6652    2.6996 H        1 ZINC000020208667    0.3900
@<TRIPOS>BOND
1     1     2     1
2     1     30    1
3     1     31    1
4     1     32    1
5     2     3     1
6     2     33    1
7     2     34    1
8     3     4     1
9     4     28    ar
10    4     5     ar
11    5     6     ar
12    5     35    1
13    6     7     1
14    6     26    ar
15    7     8     2
16    7     36    1
17    8     24    1
18    8     9     1
19    9     10    2
20    9     11    1
21    10    37    1
22    11    22    1
23    11    12    1
24    12    13    2
25    13    14    1
26    13    21    1
27    14    15    2
28    14    16    2
29    14    17    1
30    17    18    1
31    17    38    1
32    17    39    1
33    18    19    1
34    18    20    1
35    18    40    1
36    19    41    1
37    19    42    1
38    19    43    1
39    20    44    1
40    20    45    1
41    20    46    1
42    21    22    1
43    22    23    2
44    23    24    1
45    24    25    2
46    26    27    ar
47    26    47    1
48    27    28    ar
49    27    48    1
50    28    29    1
51    29    49    1
@<TRIPOS>SUBSTRUCTURE
1   ZINC000020208667 1     RESIDUE    1   A     ZIN   1
@<TRIPOS>MOLECULE
ZINC000014607385
45    47    1     0     0
SMALL
USER_CHARGES
@<TRIPOS>ATOM
1      C1     -2.6479   -2.3414    4.4002 C.3      1 ZINC000014607385    0.0200
2      O2     -1.9760   -2.7044    3.1924 O.3      1 ZINC000014607385   -0.3100
3      C3     -0.7100   -2.2371    3.0259 C.ar     1 ZINC000014607385    0.1100
4      C4     -0.1254   -1.4518    4.0056 C.ar     1 ZINC000014607385   -0.1300
5      C5      1.1625   -0.9777    3.8351 C.ar     1 ZINC000014607385   -0.0200
6      N6      1.7852   -0.1390    4.8838 N.pl3    1 ZINC000014607385    0.0300
7      O7      1.1634    0.1327    5.8953 O.2      1 ZINC000014607385   -0.1600
8      O8      2.9194    0.2794    4.7353 O.2      1 ZINC000014607385   -0.1500
9      C9      1.8700   -1.2854    2.6881 C.ar     1 ZINC000014607385   -0.0600
10     C10     1.2936   -2.0682    1.7053 C.ar     1 ZINC000014607385   -0.1000
11     C11     0.0046   -2.5520    1.8719 C.ar     1 ZINC000014607385    0.1700
12     N12    -0.5818   -3.3460    0.8773 N.am     1 ZINC000014607385   -0.6500
13     C13     0.1962   -4.0482    0.0299 C.2      1 ZINC000014607385    0.5000
14     O14     1.3976   -4.0797    0.1943 O.2      1 ZINC000014607385   -0.4900
15     C15    -0.4219   -4.7887   -1.1135 C.3      1 ZINC000014607385    0.0400
16     H16    -1.4845   -4.4869   -1.2025 H        1 ZINC000014607385    0.1600
17     C17     0.2996   -4.3919   -2.4359 C.3      1 ZINC000014607385   -0.1400
18     C18     1.2502   -5.5605   -2.6231 C.2      1 ZINC000014607385    0.5200
19     O19     2.2811   -5.5380   -3.2598 O.2      1 ZINC000014607385   -0.3900
20     N20     0.7410   -6.6080   -1.9550 N.am     1 ZINC000014607385   -0.4000
21     C21     1.1402   -7.8991   -2.0743 C.2      1 ZINC000014607385    0.5300
22     S22     2.3901   -8.3349   -3.1601 S.2      1 ZINC000014607385   -0.4200
23     N23     0.5345   -8.8434   -1.3192 N.am     1 ZINC000014607385   -0.6300
24     C24    -0.2664   -8.4663   -0.3020 C.2      1 ZINC000014607385    0.5300
25     O25    -0.9712   -9.2422    0.2857 O.2      1 ZINC000014607385   -0.4400
26     C26    -0.2305   -6.9928    0.1045 C.3      1 ZINC000014607385    0.0600
27     C27    -1.4235   -6.7211    1.0150 C.3      1 ZINC000014607385   -0.1300
28     C28     1.0844   -6.7898    0.8513 C.3      1 ZINC000014607385   -0.2000
29     N29    -0.3281   -6.2468   -1.1503 N.3      1 ZINC000014607385   -0.2700
30     H30    -2.7261   -1.2558    4.4603 H        1 ZINC000014607385    0.0600
31     H31    -3.6465   -2.7784    4.4059 H        1 ZINC000014607385    0.1100
32     H32    -2.0838   -2.7130    5.2556 H        1 ZINC000014607385    0.0600
33     H33    -0.6755   -1.2093    4.9028 H        1 ZINC000014607385    0.1700
34     H34     2.8755   -0.9129    2.5593 H        1 ZINC000014607385    0.1600
35     H35     1.8485   -2.3067    0.8100 H        1 ZINC000014607385    0.1800
36     H36    -1.5476   -3.3903    0.7987 H        1 ZINC000014607385    0.4300
37     H37    -0.4131   -4.3313   -3.2548 H        1 ZINC000014607385    0.1500
38     H38     0.8435   -3.4595   -2.3081 H        1 ZINC000014607385    0.1300
39     H39     0.6750   -9.7821   -1.5102 H        1 ZINC000014607385    0.4400
40     H40    -1.3578   -7.3554    1.8989 H        1 ZINC000014607385    0.0900
41     H41    -1.4182   -5.6740    1.3179 H        1 ZINC000014607385    0.0700
42     H42    -2.3470   -6.9395    0.4788 H        1 ZINC000014607385    0.0900
43     H43     1.9142   -7.1041    0.2182 H        1 ZINC000014607385    0.0700
44     H44     1.1996   -5.7358    1.1043 H        1 ZINC000014607385    0.1000
45     H45     1.0790   -7.3842    1.7649 H        1 ZINC000014607385    0.0900
@<TRIPOS>BOND
1     1     2     1
2     1     30    1
3     1     31    1
4     1     32    1
5     2     3     1
6     3     11    ar
7     3     4     ar
8     4     5     ar
9     4     33    1
10    5     6     1
11    5     9     ar
12    6     7     2
13    6     8     2
14    9     10    ar
15    9     34    1
16    10    11    ar
17    10    35    1
18    11    12    1
19    12    13    am
20    12    36    1
21    13    14    2
22    13    15    1
23    15    16    1
24    15    29    1
25    15    17    1
26    17    18    1
27    17    37    1
28    17    38    1
29    18    19    2
30    18    20    am
31    20    29    1
32    20    21    am
33    21    22    2
34    21    23    am
35    23    24    am
36    23    39    1
37    24    25    2
38    24    26    1
39    26    27    1
40    26    28    1
41    26    29    1
42    27    40    1
43    27    41    1
44    27    42    1
45    28    43    1
46    28    44    1
47    28    45    1
@<TRIPOS>SUBSTRUCTURE
1   ZINC000014607385 1     RESIDUE    1   A     ZIN   1
@<TRIPOS>MOLECULE
ZINC000021154369
54    56    1     0     0
SMALL
USER_CHARGES
@<TRIPOS>ATOM
1      C1     -0.0176    1.4478    0.0100 C.3      1 ZINC000021154369    0.0400
2      O2      0.0021   -0.0041    0.0020 O.3      1 ZINC000021154369   -0.3600
3      C3      0.6007   -0.6020   -1.0468 C.2      1 ZINC000021154369    0.5200
4      O4      1.0928    0.0714   -1.9306 O.2      1 ZINC000021154369   -0.5400
5      C5      0.6586   -2.0728   -1.1221 C.ar     1 ZINC000021154369   -0.2600
6      C6      0.0877   -2.8494   -0.1087 C.ar     1 ZINC000021154369   -0.0200
7      C7      0.1434   -4.2174   -0.1818 C.ar     1 ZINC000021154369   -0.2000
8      C8      0.7677   -4.8336   -1.2631 C.ar     1 ZINC000021154369    0.3200
9      N9      0.8228   -6.2208   -1.3338 N.pl3    1 ZINC000021154369   -1.0700
10     S10     1.5649   -6.9556   -2.6190 S.o2     1 ZINC000021154369    2.6300
11     O11     0.7757   -6.6572   -3.7624 O.2      1 ZINC000021154369   -1.0200
12     O12     2.9457   -6.6343   -2.5223 O.2      1 ZINC000021154369   -1.0300
13     C13     1.4401   -8.6952   -2.3685 C.2      1 ZINC000021154369   -0.6600
14     C14     2.3146   -9.4805   -1.7148 C.2      1 ZINC000021154369    0.1400
15     C15     3.5904   -9.0164   -1.0606 C.3      1 ZINC000021154369   -0.1200
16     N16     1.8580  -10.7660   -1.7408 N.pl3    1 ZINC000021154369   -0.4400
17     C17     2.5414  -11.9096   -1.1315 C.3      1 ZINC000021154369    0.0600
18     C18     0.6895  -10.8333   -2.4066 C.2      1 ZINC000021154369    0.0400
19     C19    -0.1194  -12.0825   -2.6438 C.3      1 ZINC000021154369   -0.0800
20     C20     0.3585   -9.5742   -2.8260 C.2      1 ZINC000021154369   -0.1300
21     C21    -0.8375   -9.1817   -3.5902 C.2      1 ZINC000021154369    0.6100
22     O22    -1.8535   -8.8574   -3.0055 O.2      1 ZINC000021154369   -0.5300
23     N23    -0.8063   -9.1819   -4.9376 N.am     1 ZINC000021154369   -0.6000
24     C24     0.4093   -9.5762   -5.6671 C.3      1 ZINC000021154369    0.0800
25     C25     0.0243  -10.6244   -6.7174 C.3      1 ZINC000021154369    0.0500
26     O26    -1.0563  -10.1235   -7.5081 O.3      1 ZINC000021154369   -0.3800
27     C27    -2.2553   -9.8748   -6.7703 C.3      1 ZINC000021154369    0.0500
28     C28    -1.9887   -8.7936   -5.7228 C.3      1 ZINC000021154369    0.0800
29     C29     1.3367   -4.0634   -2.2739 C.ar     1 ZINC000021154369   -0.2800
30     C30     1.2795   -2.6950   -2.2099 C.ar     1 ZINC000021154369    0.0100
31     H31     1.0050    1.8251    0.0023 H        1 ZINC000021154369    0.0600
32     H32    -0.5448    1.8089   -0.8731 H        1 ZINC000021154369    0.0600
33     H33    -0.5278    1.7993    0.9068 H        1 ZINC000021154369    0.0900
34     H34    -0.3961   -2.3721    0.7306 H        1 ZINC000021154369    0.1200
35     H35    -0.2973   -4.8177    0.6004 H        1 ZINC000021154369    0.1200
36     H36     3.3886   -8.7413   -0.0253 H        1 ZINC000021154369    0.0800
37     H37     4.3254   -9.8209   -1.0861 H        1 ZINC000021154369    0.0700
38     H38     3.9800   -8.1512   -1.5971 H        1 ZINC000021154369    0.1200
39     H39     2.2015  -12.0301   -0.1028 H        1 ZINC000021154369    0.0800
40     H40     2.3135  -12.8128   -1.6975 H        1 ZINC000021154369    0.0800
41     H41     3.6175  -11.7369   -1.1406 H        1 ZINC000021154369    0.0900
42     H42    -0.8234  -12.2207   -1.8233 H        1 ZINC000021154369    0.0800
43     H43    -0.6677  -11.9878   -3.5810 H        1 ZINC000021154369    0.0800
44     H44     0.5481  -12.9425   -2.6986 H        1 ZINC000021154369    0.0700
45     H45     0.8411   -8.7048   -6.1593 H        1 ZINC000021154369    0.0800
46     H46     1.1329  -10.0018   -4.9718 H        1 ZINC000021154369    0.0900
47     H47     0.8812  -10.8283   -7.3594 H        1 ZINC000021154369    0.1000
48     H48    -0.2848  -11.5430   -6.2187 H        1 ZINC000021154369    0.0500
49     H49    -3.0383   -9.5394   -7.4504 H        1 ZINC000021154369    0.1100
50     H50    -2.5726  -10.7907   -6.2718 H        1 ZINC000021154369    0.0500
51     H51    -2.8529   -8.6986   -5.0652 H        1 ZINC000021154369    0.1000
52     H52    -1.7973   -7.8417   -6.2181 H        1 ZINC000021154369    0.0800
53     H53     1.8199   -4.5445   -3.1114 H        1 ZINC000021154369    0.1000
54     H54     1.7210   -2.0982   -2.9943 H        1 ZINC000021154369    0.1200
@<TRIPOS>BOND
1     1     2     1
2     1     31    1
3     1     32    1
4     1     33    1
5     2     3     1
6     3     4     2
7     3     5     1
8     5     30    ar
9     5     6     ar
10    6     7     ar
11    6     34    1
12    7     8     ar
13    7     35    1
14    8     9     1
15    8     29    ar
16    9     10    1
17    10    11    2
18    10    12    2
19    10    13    1
20    13    20    1
21    13    14    2
22    14    15    1
23    14    16    1
24    15    36    1
25    15    37    1
26    15    38    1
27    16    17    1
28    16    18    1
29    17    39    1
30    17    40    1
31    17    41    1
32    18    19    1
33    18    20    2
34    19    42    1
35    19    43    1
36    19    44    1
37    20    21    1
38    21    22    2
39    21    23    am
40    23    28    1
41    23    24    1
42    24    25    1
43    24    45    1
44    24    46    1
45    25    26    1
46    25    47    1
47    25    48    1
48    26    27    1
49    27    28    1
50    27    49    1
51    27    50    1
52    28    51    1
53    28    52    1
54    29    30    ar
55    29    53    1
56    30    54    1
@<TRIPOS>SUBSTRUCTURE
1   ZINC000021154369 1     RESIDUE    1   A     ZIN   1

@<TRIPOS>MOLECULE
ZINC000021154369
55    57    1     0     0
SMALL
USER_CHARGES
@<TRIPOS>ATOM
1      C1     -4.8898   -6.5577   -9.8257 C.3      1 ZINC000021154369    0.0400
2      O2     -4.0152   -7.0721   -8.7871 O.3      1 ZINC000021154369   -0.3600
3      C3     -3.8563   -6.3090   -7.6877 C.2      1 ZINC000021154369    0.5100
4      O4     -4.4329   -5.2430   -7.5995 O.2      1 ZINC000021154369   -0.5000
5      C5     -2.9833   -6.7675   -6.5924 C.ar     1 ZINC000021154369   -0.1400
6      C6     -2.3145   -7.9915   -6.6947 C.ar     1 ZINC000021154369   -0.0400
7      C7     -1.5031   -8.4150   -5.6739 C.ar     1 ZINC000021154369   -0.1500
8      C8     -1.3449   -7.6283   -4.5360 C.ar     1 ZINC000021154369    0.1900
9      N9     -0.5219   -8.0609   -3.5027 N.am     1 ZINC000021154369   -1.0600
10     S10     0.5749   -7.0205   -2.8267 S.o2     1 ZINC000021154369    2.7100
11     O11    -0.1406   -5.8348   -2.5079 O.2      1 ZINC000021154369   -0.9500
12     O12     1.3011   -7.7726   -1.8644 O.2      1 ZINC000021154369   -0.9300
13     C13     1.7251   -6.5835   -4.0879 C.2      1 ZINC000021154369   -0.7200
14     C14     1.7036   -5.4757   -4.8501 C.2      1 ZINC000021154369    0.1700
15     C15     0.6748   -4.3773   -4.7714 C.3      1 ZINC000021154369   -0.1200
16     N16     2.7655   -5.5088   -5.7064 N.pl3    1 ZINC000021154369   -0.4300
17     C17     3.0771   -4.4726   -6.6940 C.3      1 ZINC000021154369    0.0600
18     C18     3.4861   -6.6299   -5.5138 C.2      1 ZINC000021154369    0.0700
19     C19     4.7301   -7.0191   -6.2701 C.3      1 ZINC000021154369   -0.0900
20     C20     2.9004   -7.3526   -4.5111 C.2      1 ZINC000021154369   -0.1300
21     C21     3.3530   -8.6459   -3.9716 C.2      1 ZINC000021154369    0.5900
22     O22     4.1336   -8.6763   -3.0394 O.2      1 ZINC000021154369   -0.5100
23     N23     2.9022   -9.7959   -4.5107 N.am     1 ZINC000021154369   -0.6100
24     C24     1.9622   -9.7844   -5.6428 C.3      1 ZINC000021154369    0.0700
25     C25     2.5115  -10.7071   -6.7368 C.3      1 ZINC000021154369    0.0500
26     O26     2.8067  -11.9858   -6.1696 O.3      1 ZINC000021154369   -0.3800
27     C27     3.8182  -11.9587   -5.1597 C.3      1 ZINC000021154369    0.0500
28     C28     3.3401  -11.1001   -3.9887 C.3      1 ZINC000021154369    0.0800
29     C29    -2.0089   -6.4089   -4.4311 C.ar     1 ZINC000021154369   -0.1700
30     C30    -2.8173   -5.9768   -5.4508 C.ar     1 ZINC000021154369   -0.0300
31     H31    -5.8916   -6.4163   -9.4201 H        1 ZINC000021154369    0.0700
32     H32    -4.5051   -5.6032  -10.1849 H        1 ZINC000021154369    0.0600
33     H33    -4.9293   -7.2676  -10.6520 H        1 ZINC000021154369    0.1000
34     H34    -2.4373   -8.6025   -7.5767 H        1 ZINC000021154369    0.1400
35     H35    -0.9864   -9.3602   -5.7523 H        1 ZINC000021154369    0.1400
36     H36    -0.5900   -8.9723   -3.1775 H        1 ZINC000021154369    0.4300
37     H37     0.9557   -3.6718   -3.9895 H        1 ZINC000021154369    0.1000
38     H38     0.6240   -3.8579   -5.7283 H        1 ZINC000021154369    0.0800
39     H39    -0.2993   -4.8078   -4.5395 H        1 ZINC000021154369    0.1000
40     H40     3.7307   -3.7258   -6.2433 H        1 ZINC000021154369    0.0900
41     H41     3.5784   -4.9252   -7.5496 H        1 ZINC000021154369    0.0900
42     H42     2.1541   -3.9960   -7.0241 H        1 ZINC000021154369    0.0900
43     H43     5.6062   -6.6227   -5.7570 H        1 ZINC000021154369    0.0800
44     H44     4.7994   -8.1057   -6.3209 H        1 ZINC000021154369    0.0800
45     H45     4.6843   -6.6104   -7.2796 H        1 ZINC000021154369    0.0800
46     H46     0.9873  -10.1445   -5.3142 H        1 ZINC000021154369    0.0800
47     H47     1.8677   -8.7703   -6.0312 H        1 ZINC000021154369    0.1000
48     H48     1.7669  -10.8213   -7.5246 H        1 ZINC000021154369    0.1100
49     H49     3.4211  -10.2753   -7.1544 H        1 ZINC000021154369    0.0600
50     H50     4.0136  -12.9734   -4.8129 H        1 ZINC000021154369    0.1100
51     H51     4.7325  -11.5315   -5.5716 H        1 ZINC000021154369    0.0600
52     H52     4.1563  -10.9584   -3.2802 H        1 ZINC000021154369    0.1100
53     H53     2.5030  -11.5903   -3.4917 H        1 ZINC000021154369    0.0800
54     H54    -1.8838   -5.8009   -3.5473 H        1 ZINC000021154369    0.1700
55     H55    -3.3321   -5.0309   -5.3687 H        1 ZINC000021154369    0.1500
@<TRIPOS>BOND
1     1     2     1
2     1     31    1
3     1     32    1
4     1     33    1
5     2     3     1
6     3     4     2
7     3     5     1
8     5     30    ar
9     5     6     ar
10    6     7     ar
11    6     34    1
12    7     8     ar
13    7     35    1
14    8     9     1
15    8     29    ar
16    9     10    am
17    9     36    1
18    10    11    2
19    10    12    2
20    10    13    1
21    13    20    1
22    13    14    2
23    14    15    1
24    14    16    1
25    15    37    1
26    15    38    1
27    15    39    1
28    16    17    1
29    16    18    1
30    17    40    1
31    17    41    1
32    17    42    1
33    18    19    1
34    18    20    2
35    19    43    1
36    19    44    1
37    19    45    1
38    20    21    1
39    21    22    2
40    21    23    am
41    23    28    1
42    23    24    1
43    24    25    1
44    24    46    1
45    24    47    1
46    25    26    1
47    25    48    1
48    25    49    1
49    26    27    1
50    27    28    1
51    27    50    1
52    27    51    1
53    28    52    1
54    28    53    1
55    29    30    ar
56    29    54    1
57    30    55    1
@<TRIPOS>SUBSTRUCTURE
1   ZINC000021154369 1     RESIDUE    1   A     ZIN   1
@<TRIPOS>MOLECULE
ZINC000032759384
45    46    1     0     0
SMALL
USER_CHARGES
@<TRIPOS>ATOM
1      C1     -0.0187    1.5258    0.0104 C.3      1 ZINC000032759384   -0.1700
2      C2      0.0021   -0.0041    0.0020 C.3      1 ZINC000032759384    0.1900
3      H3      0.5123   -0.3556   -0.8948 H        1 ZINC000032759384    0.1000
4      N4     -1.3723   -0.5112    0.0124 N.am     1 ZINC000032759384   -1.1100
5      S5     -2.1195   -0.9073   -1.4113 S.o2     1 ZINC000032759384    2.6900
6      O6     -3.4098   -1.3922   -1.0660 O.2      1 ZINC000032759384   -0.9400
7      O7     -1.9110    0.1880   -2.2923 O.2      1 ZINC000032759384   -0.9400
8      C8     -1.2425   -2.2724   -2.0984 C.ar     1 ZINC000032759384   -0.7000
9      C9     -0.1772   -2.0510   -2.9507 C.ar     1 ZINC000032759384    0.0300
10     C10     0.5110   -3.1221   -3.4898 C.ar     1 ZINC000032759384   -0.1500
11     C11     0.1340   -4.4143   -3.1761 C.ar     1 ZINC000032759384    0.0300
12     C12    -0.9311   -4.6357   -2.3228 C.ar     1 ZINC000032759384   -0.6800
13     S13    -1.4121   -6.2831   -1.9234 S.o2     1 ZINC000032759384    2.5000
14     C14    -0.4390   -6.6937   -0.4486 C.3      1 ZINC000032759384   -0.6500
15     O15    -2.7910   -6.1761   -1.5971 O.2      1 ZINC000032759384   -0.9300
16     O16    -0.9803   -7.0539   -3.0363 O.2      1 ZINC000032759384   -0.9300
17     C17    -1.6164   -3.5649   -1.7805 C.ar     1 ZINC000032759384    0.0800
18     C18     0.7309   -0.5033    1.2229 C.ar     1 ZINC000032759384   -0.0400
19     C19     0.0808   -0.5585    2.4416 C.ar     1 ZINC000032759384   -0.1300
20     C20     0.7494   -1.0164    3.5615 C.ar     1 ZINC000032759384   -0.0200
21     C21     2.0680   -1.4196    3.4626 C.ar     1 ZINC000032759384   -0.6600
22     S22     2.9203   -2.0027    4.8902 S.o2     1 ZINC000032759384    2.5000
23     C23     2.6120   -3.7903    4.9028 C.3      1 ZINC000032759384   -0.6500
24     O24     4.2885   -1.7346    4.6154 O.2      1 ZINC000032759384   -0.9300
25     O25     2.2546   -1.3742    5.9770 O.2      1 ZINC000032759384   -0.9300
26     C26     2.7177   -1.3656    2.2437 C.ar     1 ZINC000032759384   -0.0200
27     C27     2.0479   -0.9113    1.1230 C.ar     1 ZINC000032759384   -0.1300
28     H28     1.0039    1.9031    0.0027 H        1 ZINC000032759384    0.0700
29     H29    -0.5459    1.8868   -0.8726 H        1 ZINC000032759384    0.0800
30     H30    -0.5289    1.8773    0.9072 H        1 ZINC000032759384    0.0700
31     H31    -1.8447   -0.6148    0.8533 H        1 ZINC000032759384    0.4200
32     H32     0.1175   -1.0413   -3.1958 H        1 ZINC000032759384    0.1500
33     H33     1.3430   -2.9490   -4.1563 H        1 ZINC000032759384    0.1500
34     H34     0.6711   -5.2510   -3.5978 H        1 ZINC000032759384    0.1500
35     H35    -0.6796   -5.9941    0.3519 H        1 ZINC000032759384    0.1300
36     H36    -0.6759   -7.7082   -0.1279 H        1 ZINC000032759384    0.1400
37     H37     0.6232   -6.6257   -0.6836 H        1 ZINC000032759384    0.1300
38     H38    -2.4483   -3.7379   -1.1140 H        1 ZINC000032759384    0.1600
39     H39    -0.9493   -0.2435    2.5188 H        1 ZINC000032759384    0.1300
40     H40     0.2417   -1.0589    4.5138 H        1 ZINC000032759384    0.1500
41     H41     3.0027   -4.2328    3.9865 H        1 ZINC000032759384    0.1300
42     H42     3.1086   -4.2386    5.7633 H        1 ZINC000032759384    0.1300
43     H43     1.5394   -3.9735    4.9661 H        1 ZINC000032759384    0.1300
44     H44     3.7477   -1.6809    2.1664 H        1 ZINC000032759384    0.1500
45     H45     2.5555   -0.8692    0.1706 H        1 ZINC000032759384    0.1400
@<TRIPOS>BOND
1     1     2     1
2     1     28    1
3     1     29    1
4     1     30    1
5     2     3     1
6     2     4     1
7     2     18    1
8     4     5     am
9     4     31    1
10    5     6     2
11    5     7     2
12    5     8     1
13    8     17    ar
14    8     9     ar
15    9     10    ar
16    9     32    1
17    10    11    ar
18    10    33    1
19    11    12    ar
20    11    34    1
21    12    13    1
22    12    17    ar
23    13    14    1
24    13    15    2
25    13    16    2
26    14    35    1
27    14    36    1
28    14    37    1
29    17    38    1
30    18    27    ar
31    18    19    ar
32    19    20    ar
33    19    39    1
34    20    21    ar
35    20    40    1
36    21    22    1
37    21    26    ar
38    22    23    1
39    22    24    2
40    22    25    2
41    23    41    1
42    23    42    1
43    23    43    1
44    26    27    ar
45    26    44    1
46    27    45    1
@<TRIPOS>SUBSTRUCTURE
1   ZINC000032759384 1     RESIDUE    1   A     ZIN   1
@<TRIPOS>MOLECULE
ZINC000032857712
45    47    1     0     0
SMALL
USER_CHARGES
@<TRIPOS>ATOM
1      C1     -0.3607    2.8431    2.8227 C.3      1 ZINC000032857712   -0.1100
2      C2     -0.6422    1.5122    3.4712 C.2      1 ZINC000032857712    0.1100
3      N3     -1.4307    0.5781    3.0240 N.2      1 ZINC000032857712   -0.3600
4      O4     -1.4529   -0.3780    3.7641 O.3      1 ZINC000032857712    0.1000
5      C5     -0.6587   -0.1957    4.8284 C.2      1 ZINC000032857712    0.1100
6      C6     -0.4302   -1.1642    5.9601 C.3      1 ZINC000032857712   -0.1100
7      C7     -0.0973    1.0284    4.6828 C.2      1 ZINC000032857712   -0.8000
8      S8      1.0401    1.8354    5.7596 S.o2     1 ZINC000032857712    2.7200
9      O9      0.9104    3.2282    5.5095 O.2      1 ZINC000032857712   -0.9400
10     O10     0.8567    1.2561    7.0442 O.2      1 ZINC000032857712   -0.9400
11     N11     2.5641    1.4122    5.2691 N.am     1 ZINC000032857712   -0.9900
12     C12     3.2229    0.2194    5.8197 C.3      1 ZINC000032857712    0.1000
13     C13     3.6423   -0.6893    4.6576 C.3      1 ZINC000032857712    0.0700
14     N14     4.3601    0.1209    3.6634 N.am     1 ZINC000032857712   -0.5900
15     C15     5.6000   -0.2241    3.2635 C.2      1 ZINC000032857712    0.5800
16     O16     6.1525    0.4068    2.3815 O.2      1 ZINC000032857712   -0.5000
17     C17     6.2832   -1.3591    3.8908 C.2      1 ZINC000032857712   -0.1600
18     C18     7.5478   -1.3358    4.4080 C.2      1 ZINC000032857712   -0.6200
19     S19     8.5720    0.0979    4.3986 S.o2     1 ZINC000032857712    2.7200
20     N20     8.9008    0.4551    2.8153 N.am     1 ZINC000032857712   -1.2400
21     O21     7.7738    1.1645    4.8931 O.2      1 ZINC000032857712   -0.9500
22     O22     9.8065   -0.2869    4.9878 O.2      1 ZINC000032857712   -0.9600
23     C23     7.9413   -2.5422    4.9369 C.2      1 ZINC000032857712   -0.0700
24     C24     7.0321   -3.5208    4.8566 C.2      1 ZINC000032857712   -0.2500
25     S25     5.6040   -2.9667    4.1052 S.3      1 ZINC000032857712    0.2800
26     C26     3.7013    1.3136    3.1128 C.3      1 ZINC000032857712    0.1000
27     C27     3.2796    2.2192    4.2708 C.3      1 ZINC000032857712    0.1000
28     H28     0.4895    2.7457    2.1475 H        1 ZINC000032857712    0.0900
29     H29    -1.2366    3.1655    2.2598 H        1 ZINC000032857712    0.0900
30     H30    -0.1312    3.5807    3.5916 H        1 ZINC000032857712    0.1100
31     H31    -1.0192   -2.0657    5.7913 H        1 ZINC000032857712    0.1000
32     H32     0.6271   -1.4246    6.0076 H        1 ZINC000032857712    0.1000
33     H33    -0.7334   -0.7029    6.9000 H        1 ZINC000032857712    0.1200
34     H34     4.1043    0.5176    6.3875 H        1 ZINC000032857712    0.0900
35     H35     2.5294   -0.3143    6.4696 H        1 ZINC000032857712    0.1100
36     H36     4.2969   -1.4783    5.0280 H        1 ZINC000032857712    0.1000
37     H37     2.7567   -1.1300    4.1998 H        1 ZINC000032857712    0.0900
38     H38     8.5375   -0.0998    2.1075 H        1 ZINC000032857712    0.4200
39     H39     9.4566    1.2191    2.5958 H        1 ZINC000032857712    0.4200
40     H40     8.9132   -2.6895    5.3841 H        1 ZINC000032857712    0.1700
41     H41     7.1809   -4.5260    5.2225 H        1 ZINC000032857712    0.1800
42     H42     4.3948    1.8474    2.4629 H        1 ZINC000032857712    0.1200
43     H43     2.8199    1.0155    2.5450 H        1 ZINC000032857712    0.0800
44     H44     2.6253    3.0077    3.8990 H        1 ZINC000032857712    0.1100
45     H45     4.1638    2.6607    4.7306 H        1 ZINC000032857712    0.0900
@<TRIPOS>BOND
1     1     2     1
2     1     28    1
3     1     29    1
4     1     30    1
5     2     7     1
6     2     3     2
7     3     4     1
8     4     5     1
9     5     6     1
10    5     7     2
11    6     31    1
12    6     32    1
13    6     33    1
14    7     8     1
15    8     9     2
16    8     10    2
17    8     11    am
18    11    27    1
19    11    12    1
20    12    13    1
21    12    34    1
22    12    35    1
23    13    14    1
24    13    36    1
25    13    37    1
26    14    15    am
27    14    26    1
28    15    16    2
29    15    17    1
30    17    25    1
31    17    18    2
32    18    19    1
33    18    23    1
34    19    20    am
35    19    21    2
36    19    22    2
37    20    38    1
38    20    39    1
39    23    24    2
40    23    40    1
41    24    25    1
42    24    41    1
43    26    27    1
44    26    42    1
45    26    43    1
46    27    44    1
47    27    45    1
@<TRIPOS>SUBSTRUCTURE
1   ZINC000032857712 1     RESIDUE    1   A     ZIN   1
@<TRIPOS>MOLECULE
ZINC000032913059
51    53    1     0     0
SMALL
USER_CHARGES
@<TRIPOS>ATOM
1      C1      0.5634    1.2678   -0.0275 C.3      1 ZINC000032913059   -0.1500
2      C2      0.4770   -0.2597   -0.0299 C.3      1 ZINC000032913059    0.0500
3      O3      1.1101   -0.7708   -1.2047 O.3      1 ZINC000032913059   -0.3100
4      C4      1.1212   -2.1206   -1.3620 C.ar     1 ZINC000032913059    0.1900
5      C5      0.5299   -2.9362   -0.4081 C.ar     1 ZINC000032913059   -0.2300
6      C6      0.5421   -4.3080   -0.5705 C.ar     1 ZINC000032913059    0.0200
7      C7      1.1434   -4.8683   -1.6824 C.ar     1 ZINC000032913059   -0.7200
8      S8      1.1579   -6.6184   -1.8863 S.o2     1 ZINC000032913059    2.6900
9      O9      2.2549   -6.9139   -2.7398 O.2      1 ZINC000032913059   -0.9500
10     O10     1.0121   -7.1750   -0.5870 O.2      1 ZINC000032913059   -0.9500
11     N11    -0.2105   -7.0254   -2.7255 N.am     1 ZINC000032913059   -1.0000
12     C12    -1.4591   -7.3355   -2.0152 C.3      1 ZINC000032913059    0.1100
13     C13    -2.5677   -6.4207   -2.5506 C.3      1 ZINC000032913059    0.1000
14     N14    -2.5553   -6.4779   -4.0191 N.am     1 ZINC000032913059   -0.6000
15     C15    -3.6691   -6.8082   -4.7022 C.2      1 ZINC000032913059    0.6000
16     O16    -4.6695   -7.1550   -4.1032 O.2      1 ZINC000032913059   -0.5100
17     C17    -3.6752   -6.7495   -6.1717 C.2      1 ZINC000032913059   -0.3000
18     C18    -3.1455   -7.7782   -6.9260 C.2      1 ZINC000032913059    0.2100
19     N19    -3.1690   -7.6896   -8.2813 N.am     1 ZINC000032913059   -0.5300
20     C20    -2.6068   -8.7816   -9.0798 C.3      1 ZINC000032913059    0.0700
21     C21    -3.6959   -6.6245   -8.9055 C.2      1 ZINC000032913059    0.7000
22     O22    -3.6927   -6.5939  -10.1206 O.2      1 ZINC000032913059   -0.5300
23     N23    -4.2272   -5.5909   -8.2303 N.am     1 ZINC000032913059   -0.6500
24     C24    -4.2513   -5.5957   -6.8808 C.2      1 ZINC000032913059    0.5700
25     O25    -4.7313   -4.6631   -6.2641 O.2      1 ZINC000032913059   -0.4900
26     C26    -1.3066   -6.1678   -4.7294 C.3      1 ZINC000032913059    0.0900
27     C27    -0.1996   -7.0771   -4.1942 C.3      1 ZINC000032913059    0.1100
28     C28     1.7331   -4.0576   -2.6347 C.ar     1 ZINC000032913059    0.0200
29     C29     1.7189   -2.6850   -2.4795 C.ar     1 ZINC000032913059   -0.1700
30     H30     1.6099    1.5726   -0.0381 H        1 ZINC000032913059    0.0700
31     H31     0.0614    1.6615   -0.9112 H        1 ZINC000032913059    0.0700
32     H32     0.0806    1.6576    0.8686 H        1 ZINC000032913059    0.0800
33     H33     0.9791   -0.6534    0.8539 H        1 ZINC000032913059    0.0700
34     H34    -0.5695   -0.5645   -0.0193 H        1 ZINC000032913059    0.0700
35     H35     0.0607   -2.4990    0.4609 H        1 ZINC000032913059    0.1400
36     H36     0.0819   -4.9433    0.1717 H        1 ZINC000032913059    0.1400
37     H37    -1.7293   -8.3772   -2.1879 H        1 ZINC000032913059    0.0900
38     H38    -1.3254   -7.1618   -0.9475 H        1 ZINC000032913059    0.1100
39     H39    -3.5342   -6.7614   -2.1794 H        1 ZINC000032913059    0.1100
40     H40    -2.3873   -5.3969   -2.2228 H        1 ZINC000032913059    0.0800
41     H41    -2.7169   -8.6440   -6.4432 H        1 ZINC000032913059    0.1900
42     H42    -3.3852   -9.5145   -9.2922 H        1 ZINC000032913059    0.0800
43     H43    -2.2173   -8.3834  -10.0168 H        1 ZINC000032913059    0.1000
44     H44    -1.7996   -9.2595   -8.5247 H        1 ZINC000032913059    0.1000
45     H45    -4.5992   -4.8383   -8.7162 H        1 ZINC000032913059    0.4400
46     H46    -1.4403   -6.3415   -5.7972 H        1 ZINC000032913059    0.0900
47     H47    -1.0365   -5.1261   -4.5568 H        1 ZINC000032913059    0.0800
48     H48     0.7663   -6.7353   -4.5662 H        1 ZINC000032913059    0.1100
49     H49    -0.3782   -8.1018   -4.5203 H        1 ZINC000032913059    0.0800
50     H50     2.2018   -4.4977   -3.5024 H        1 ZINC000032913059    0.1500
51     H51     2.1796   -2.0522   -3.2236 H        1 ZINC000032913059    0.1400
@<TRIPOS>BOND
1     1     2     1
2     1     30    1
3     1     31    1
4     1     32    1
5     2     3     1
6     2     33    1
7     2     34    1
8     3     4     1
9     4     29    ar
10    4     5     ar
11    5     6     ar
12    5     35    1
13    6     7     ar
14    6     36    1
15    7     8     1
16    7     28    ar
17    8     9     2
18    8     10    2
19    8     11    am
20    11    27    1
21    11    12    1
22    12    13    1
23    12    37    1
24    12    38    1
25    13    14    1
26    13    39    1
27    13    40    1
28    14    15    am
29    14    26    1
30    15    16    2
31    15    17    1
32    17    24    1
33    17    18    2
34    18    19    1
35    18    41    1
36    19    20    1
37    19    21    am
38    20    42    1
39    20    43    1
40    20    44    1
41    21    22    2
42    21    23    am
43    23    24    am
44    23    45    1
45    24    25    2
46    26    27    1
47    26    46    1
48    26    47    1
49    27    48    1
50    27    49    1
51    28    29    ar
52    28    50    1
53    29    51    1
@<TRIPOS>SUBSTRUCTURE
1   ZINC000032913059 1     RESIDUE    1   A     ZIN   1

@<TRIPOS>MOLECULE
ZINC000032913059
50    52    1     0     0
SMALL
USER_CHARGES
@<TRIPOS>ATOM
1      C1     -0.3359    1.2581   -0.4738 C.3      1 ZINC000032913059   -0.1500
2      C2     -0.2565   -0.2677   -0.3925 C.3      1 ZINC000032913059    0.0500
3      O3     -1.5771   -0.8119   -0.3516 O.3      1 ZINC000032913059   -0.3100
4      C4     -1.6850   -2.1646   -0.2779 C.ar     1 ZINC000032913059    0.1900
5      C5     -0.5432   -2.9517   -0.2398 C.ar     1 ZINC000032913059   -0.2300
6      C6     -0.6555   -4.3265   -0.1644 C.ar     1 ZINC000032913059    0.0200
7      C7     -1.9046   -4.9182   -0.1273 C.ar     1 ZINC000032913059   -0.7200
8      S8     -2.0444   -6.6721   -0.0317 S.o2     1 ZINC000032913059    2.7000
9      O9     -3.3242   -7.0016   -0.5540 O.2      1 ZINC000032913059   -0.9600
10     O10    -0.8326   -7.2002   -0.5532 O.2      1 ZINC000032913059   -0.9600
11     N11    -2.0770   -7.0744    1.5743 N.am     1 ZINC000032913059   -1.0000
12     C12    -0.8302   -7.3507    2.3016 C.3      1 ZINC000032913059    0.1100
13     C13    -0.7628   -6.4297    3.5262 C.3      1 ZINC000032913059    0.1000
14     N14    -2.0390   -6.5164    4.2498 N.am     1 ZINC000032913059   -0.6100
15     C15    -2.0655   -6.8429    5.5571 C.2      1 ZINC000032913059    0.6100
16     O16    -1.0383   -7.1620    6.1253 O.2      1 ZINC000032913059   -0.5400
17     C17    -3.3363   -6.8135    6.2968 C.2      1 ZINC000032913059   -0.3400
18     C18    -4.2283   -7.8652    6.2189 C.2      1 ZINC000032913059    0.1700
19     N19    -5.3922   -7.8034    6.9164 N.am     1 ZINC000032913059   -0.5500
20     C20    -6.3372   -8.9197    6.8326 C.3      1 ZINC000032913059    0.0700
21     C21    -5.6961   -6.7428    7.6811 C.2      1 ZINC000032913059    0.6400
22     O22    -6.7505   -6.7366    8.2858 O.2      1 ZINC000032913059   -0.6100
23     N23    -4.8719   -5.6879    7.8001 N.pl3    1 ZINC000032913059   -0.6900
24     C24    -3.6914   -5.6653    7.1463 C.2      1 ZINC000032913059    0.5400
25     O25    -2.9409   -4.7132    7.2504 O.2      1 ZINC000032913059   -0.5800
26     C26    -3.2858   -6.2401    3.5224 C.3      1 ZINC000032913059    0.1000
27     C27    -3.3528   -7.1556    2.2993 C.3      1 ZINC000032913059    0.1100
28     C28    -3.0441   -4.1360   -0.1647 C.ar     1 ZINC000032913059    0.0200
29     C29    -2.9371   -2.7605   -0.2348 C.ar     1 ZINC000032913059   -0.1700
30     H30     0.6715    1.6732   -0.5050 H        1 ZINC000032913059    0.0800
31     H31    -0.8757    1.5462   -1.3759 H        1 ZINC000032913059    0.0700
32     H32    -0.8601    1.6418    0.4014 H        1 ZINC000032913059    0.0700
33     H33     0.2677   -0.6514   -1.2677 H        1 ZINC000032913059    0.0700
34     H34     0.2833   -0.5558    0.5096 H        1 ZINC000032913059    0.0700
35     H35     0.4327   -2.4899   -0.2694 H        1 ZINC000032913059    0.1400
36     H36     0.2331   -4.9396   -0.1347 H        1 ZINC000032913059    0.1400
37     H37    -0.8186   -8.3914    2.6256 H        1 ZINC000032913059    0.0800
38     H38     0.0231   -7.1578    1.6514 H        1 ZINC000032913059    0.1000
39     H39     0.0501   -6.7478    4.1789 H        1 ZINC000032913059    0.1100
40     H40    -0.5948   -5.4025    3.2025 H        1 ZINC000032913059    0.0700
41     H41    -4.0028   -8.7277    5.6093 H        1 ZINC000032913059    0.1400
42     H42    -6.1137   -9.6445    7.6155 H        1 ZINC000032913059    0.0600
43     H43    -7.3530   -8.5464    6.9623 H        1 ZINC000032913059    0.0900
44     H44    -6.2479   -9.3989    5.8577 H        1 ZINC000032913059    0.0700
45     H45    -4.1391   -6.4330    4.1727 H        1 ZINC000032913059    0.1000
46     H46    -3.2975   -5.1994    3.1985 H        1 ZINC000032913059    0.0700
47     H47    -4.1661   -6.8364    1.6475 H        1 ZINC000032913059    0.1000
48     H48    -3.5201   -8.1836    2.6206 H        1 ZINC000032913059    0.0800
49     H49    -4.0186   -4.6006   -0.1353 H        1 ZINC000032913059    0.1500
50     H50    -3.8275   -2.1499   -0.2640 H        1 ZINC000032913059    0.1400
@<TRIPOS>BOND
1     1     2     1
2     1     30    1
3     1     31    1
4     1     32    1
5     2     3     1
6     2     33    1
7     2     34    1
8     3     4     1
9     4     29    ar
10    4     5     ar
11    5     6     ar
12    5     35    1
13    6     7     ar
14    6     36    1
15    7     8     1
16    7     28    ar
17    8     9     2
18    8     10    2
19    8     11    am
20    11    27    1
21    11    12    1
22    12    13    1
23    12    37    1
24    12    38    1
25    13    14    1
26    13    39    1
27    13    40    1
28    14    15    am
29    14    26    1
30    15    16    2
31    15    17    1
32    17    24    1
33    17    18    2
34    18    19    1
35    18    41    1
36    19    20    1
37    19    21    am
38    20    42    1
39    20    43    1
40    20    44    1
41    21    22    2
42    21    23    1
43    23    24    1
44    24    25    2
45    26    27    1
46    26    45    1
47    26    46    1
48    27    47    1
49    27    48    1
50    28    29    ar
51    28    49    1
52    29    50    1
@<TRIPOS>SUBSTRUCTURE
1   ZINC000032913059 1     RESIDUE    1   A     ZIN   1
@<TRIPOS>MOLECULE
ZINC000040057639
48    51    1     0     0
SMALL
USER_CHARGES
@<TRIPOS>ATOM
1      C1     -0.1035    1.1344    0.6739 C.3      1 ZINC000040057639   -0.1500
2      C2      0.0423   -0.3617    0.3885 C.3      1 ZINC000040057639   -0.1400
3      C3      0.6290   -0.5592   -1.0106 C.3      1 ZINC000040057639    0.1100
4      N4      0.7686   -1.9918   -1.2838 N.am     1 ZINC000040057639   -0.5200
5      C5      1.9078   -2.6215   -0.9530 C.2      1 ZINC000040057639    0.7100
6      O6      2.7968   -1.9767   -0.4318 O.2      1 ZINC000040057639   -0.5200
7      N7      2.1093   -3.9305   -1.1712 N.am     1 ZINC000040057639   -0.6600
8      C8      1.1562   -4.6961   -1.7471 C.2      1 ZINC000040057639    0.5700
9      O9      1.3410   -5.8817   -1.9433 O.2      1 ZINC000040057639   -0.4800
10     C10    -0.1134   -4.0541   -2.1301 C.ar     1 ZINC000040057639   -0.2500
11     C11    -1.1454   -4.7687   -2.7273 C.ar     1 ZINC000040057639    0.0600
12     C12    -2.3156   -4.0737   -3.0565 C.ar     1 ZINC000040057639   -0.2300
13     C13    -3.4485   -4.7755   -3.6924 C.2      1 ZINC000040057639    0.5800
14     O14    -4.1013   -4.2196   -4.5543 O.2      1 ZINC000040057639   -0.5200
15     N15    -3.7589   -6.0322   -3.3173 N.am     1 ZINC000040057639   -0.6100
16     C16    -3.0707   -6.6744   -2.1871 C.3      1 ZINC000040057639    0.1000
17     C17    -4.1271   -7.2335   -1.2281 C.3      1 ZINC000040057639    0.0500
18     N18    -5.0467   -8.1049   -1.9716 N.3      1 ZINC000040057639   -0.4500
19     C19    -5.9172   -8.7569   -1.1123 C.2      1 ZINC000040057639    0.2200
20     N20    -5.9308   -8.6186    0.1771 N.2      1 ZINC000040057639   -0.5200
21     C21    -6.8317   -9.3188    0.8432 C.2      1 ZINC000040057639    0.0600
22     C22    -7.6144  -10.0831    0.0811 C.2      1 ZINC000040057639   -0.2800
23     S23    -7.1341   -9.8549   -1.5984 S.3      1 ZINC000040057639    0.1500
24     C24    -5.7833   -7.3520   -2.9957 C.3      1 ZINC000040057639    0.0400
25     C25    -4.7991   -6.7956   -4.0233 C.3      1 ZINC000040057639    0.1200
26     C26    -2.3974   -2.7065   -2.7747 C.ar     1 ZINC000040057639    0.2400
27     N27    -1.3986   -2.0631   -2.2084 N.ar     1 ZINC000040057639   -0.5100
28     C28    -0.2751   -2.6779   -1.8729 C.ar     1 ZINC000040057639    0.4300
29     H29     0.8750    1.6117    0.6195 H        1 ZINC000040057639    0.0600
30     H30    -0.7677    1.5822   -0.0652 H        1 ZINC000040057639    0.0600
31     H31    -0.5215    1.2752    1.6706 H        1 ZINC000040057639    0.0600
32     H32     0.7066   -0.8095    1.1277 H        1 ZINC000040057639    0.0700
33     H33    -0.9361   -0.8389    0.4429 H        1 ZINC000040057639    0.0700
34     H34    -0.0353   -0.1114   -1.7497 H        1 ZINC000040057639    0.1100
35     H35     1.6075   -0.0820   -1.0650 H        1 ZINC000040057639    0.1000
36     H36     2.9527   -4.3333   -0.9116 H        1 ZINC000040057639    0.4400
37     H37    -1.0478   -5.8248   -2.9309 H        1 ZINC000040057639    0.1700
38     H38    -2.4431   -7.4865   -2.5543 H        1 ZINC000040057639    0.0900
39     H39    -2.4564   -5.9395   -1.6671 H        1 ZINC000040057639    0.1000
40     H40    -3.6370   -7.8082   -0.4421 H        1 ZINC000040057639    0.1100
41     H41    -4.6860   -6.4104   -0.7827 H        1 ZINC000040057639    0.0600
42     H42    -6.9263   -9.2757    1.9182 H        1 ZINC000040057639    0.1800
43     H43    -8.4075  -10.7269    0.4320 H        1 ZINC000040057639    0.1800
44     H44    -6.4944   -8.0127   -3.4917 H        1 ZINC000040057639    0.1000
45     H45    -6.3191   -6.5273   -2.5257 H        1 ZINC000040057639    0.0600
46     H46    -5.3262   -6.1426   -4.7189 H        1 ZINC000040057639    0.1100
47     H47    -4.3351   -7.6176   -4.5684 H        1 ZINC000040057639    0.0900
48     H48    -3.2984   -2.1674   -3.0273 H        1 ZINC000040057639    0.1800
@<TRIPOS>BOND
1     1     2     1
2     1     29    1
3     1     30    1
4     1     31    1
5     2     3     1
6     2     32    1
7     2     33    1
8     3     4     1
9     3     34    1
10    3     35    1
11    4     28    1
12    4     5     am
13    5     6     2
14    5     7     am
15    7     8     am
16    7     36    1
17    8     9     2
18    8     10    1
19    10    28    ar
20    10    11    ar
21    11    12    ar
22    11    37    1
23    12    13    1
24    12    26    ar
25    13    14    2
26    13    15    am
27    15    25    1
28    15    16    1
29    16    17    1
30    16    38    1
31    16    39    1
32    17    18    1
33    17    40    1
34    17    41    1
35    18    19    1
36    18    24    1
37    19    23    1
38    19    20    2
39    20    21    1
40    21    22    2
41    21    42    1
42    22    23    1
43    22    43    1
44    24    25    1
45    24    44    1
46    24    45    1
47    25    46    1
48    25    47    1
49    26    27    ar
50    26    48    1
51    27    28    ar
@<TRIPOS>SUBSTRUCTURE
1   ZINC000040057639 1     RESIDUE    1   A     ZIN   1
@<TRIPOS>MOLECULE
ZINC000058827971
55    57    1     0     0
SMALL
USER_CHARGES
@<TRIPOS>ATOM
1      C1     -2.1999    2.3369    2.4369 C.3      1 ZINC000058827971   -0.1700
2      C2     -1.5382    1.2033    1.6507 C.3      1 ZINC000058827971    0.1500
3      C3     -0.4572    0.5482    2.5127 C.3      1 ZINC000058827971   -0.1700
4      N4     -2.5477    0.2045    1.2908 N.am     1 ZINC000058827971   -0.6200
5      C5     -2.8761   -0.1819   -0.0864 C.3      1 ZINC000058827971    0.1200
6      C6     -3.6354   -1.5220    0.0315 C.3      1 ZINC000058827971   -0.1200
7      H7     -2.9517   -2.3666   -0.0548 H        1 ZINC000058827971    0.1200
8      C8     -4.7325   -1.6126   -0.9976 C.2      1 ZINC000058827971    0.5300
9      O9     -4.9143   -0.6975   -1.7724 O.2      1 ZINC000058827971   -0.5100
10     N10    -5.5118   -2.7106   -1.0570 N.am     1 ZINC000058827971   -0.6700
11     C11    -6.5878   -2.7550   -1.9428 C.ar     1 ZINC000058827971    0.1500
12     C12    -6.4870   -2.1431   -3.1884 C.ar     1 ZINC000058827971   -0.1200
13     C13    -7.5473   -2.1850   -4.0654 C.ar     1 ZINC000058827971   -0.0500
14     C14    -8.7257   -2.8434   -3.7035 C.ar     1 ZINC000058827971   -0.1300
15     C15    -9.8644   -2.8907   -4.6414 C.2      1 ZINC000058827971    0.5500
16     O16    -9.6774   -3.1636   -5.8114 O.2      1 ZINC000058827971   -0.5400
17     N17   -11.1115   -2.6314   -4.2010 N.am     1 ZINC000058827971   -0.6000
18     C18   -11.3656   -2.3847   -2.7750 C.3      1 ZINC000058827971    0.0900
19     C19   -12.1092   -1.0533   -2.6297 C.3      1 ZINC000058827971   -0.1400
20     C20   -13.3696   -1.0803   -3.4973 C.3      1 ZINC000058827971   -0.1000
21     C21   -12.9765   -1.2562   -4.9658 C.3      1 ZINC000058827971   -0.1700
22     H22   -12.3213   -0.4391   -5.2675 H        1 ZINC000058827971    0.0600
23     C23   -14.2162   -1.2494   -5.8227 C.2      1 ZINC000058827971    0.5000
24     O24   -14.2115   -0.6732   -6.8971 O.co2    1 ZINC000058827971   -0.7000
25     O25   -15.2239   -1.8202   -5.4415 O.co2    1 ZINC000058827971   -0.6900
26     C26   -12.2418   -2.5840   -5.1384 C.3      1 ZINC000058827971    0.1300
27     C27    -8.8235   -3.4573   -2.4519 C.ar     1 ZINC000058827971   -0.0700
28     C28    -7.7576   -3.4158   -1.5815 C.ar     1 ZINC000058827971   -0.1500
29     C29    -4.2212   -1.4280    1.4593 C.3      1 ZINC000058827971   -0.1500
30     C30    -3.2881   -0.4799    2.1797 C.2      1 ZINC000058827971    0.5200
31     O31    -3.2229   -0.3507    3.3839 O.2      1 ZINC000058827971   -0.5200
32     H32    -1.4488    3.0800    2.7047 H        1 ZINC000058827971    0.0700
33     H33    -2.9700    2.8037    1.8228 H        1 ZINC000058827971    0.0600
34     H34    -2.6523    1.9346    3.3433 H        1 ZINC000058827971    0.0700
35     H35    -1.0858    1.6057    0.7443 H        1 ZINC000058827971    0.0900
36     H36    -0.9095    0.1458    3.4191 H        1 ZINC000058827971    0.0700
37     H37     0.0142   -0.2594    1.9526 H        1 ZINC000058827971    0.0600
38     H38     0.2939    1.2913    2.7805 H        1 ZINC000058827971    0.0700
39     H39    -3.5126    0.5729   -0.5484 H        1 ZINC000058827971    0.0900
40     H40    -1.9642   -0.3149   -0.6685 H        1 ZINC000058827971    0.0900
41     H41    -5.3243   -3.4701   -0.4834 H        1 ZINC000058827971    0.4100
42     H42    -5.5760   -1.6345   -3.4674 H        1 ZINC000058827971    0.1400
43     H43    -7.4687   -1.7093   -5.0318 H        1 ZINC000058827971    0.1400
44     H44   -11.9763   -3.1906   -2.3679 H        1 ZINC000058827971    0.0700
45     H45   -10.4182   -2.3346   -2.2384 H        1 ZINC000058827971    0.0900
46     H46   -12.3885   -0.9045   -1.5867 H        1 ZINC000058827971    0.0700
47     H47   -11.4621   -0.2380   -2.9534 H        1 ZINC000058827971    0.0600
48     H48   -14.0047   -1.9109   -3.1893 H        1 ZINC000058827971    0.0700
49     H49   -13.9136   -0.1434   -3.3767 H        1 ZINC000058827971    0.0600
50     H50   -11.8738   -2.6677   -6.1610 H        1 ZINC000058827971    0.0900
51     H51   -12.9217   -3.4084   -4.9239 H        1 ZINC000058827971    0.0700
52     H52    -9.7329   -3.9666   -2.1691 H        1 ZINC000058827971    0.1400
53     H53    -7.8324   -3.8900   -0.6141 H        1 ZINC000058827971    0.1300
54     H54    -5.2335   -1.0247    1.4306 H        1 ZINC000058827971    0.1100
55     H55    -4.2128   -2.4060    1.9404 H        1 ZINC000058827971    0.1100
@<TRIPOS>BOND
1     1     2     1
2     1     32    1
3     1     33    1
4     1     34    1
5     2     3     1
6     2     4     1
7     2     35    1
8     3     36    1
9     3     37    1
10    3     38    1
11    4     30    am
12    4     5     1
13    5     6     1
14    5     39    1
15    5     40    1
16    6     7     1
17    6     8     1
18    6     29    1
19    8     9     2
20    8     10    am
21    10    11    1
22    10    41    1
23    11    28    ar
24    11    12    ar
25    12    13    ar
26    12    42    1
27    13    14    ar
28    13    43    1
29    14    15    1
30    14    27    ar
31    15    16    2
32    15    17    am
33    17    26    1
34    17    18    1
35    18    19    1
36    18    44    1
37    18    45    1
38    19    20    1
39    19    46    1
40    19    47    1
41    20    21    1
42    20    48    1
43    20    49    1
44    21    22    1
45    21    23    1
46    21    26    1
47    23    24    ar
48    23    25    ar
49    26    50    1
50    26    51    1
51    27    28    ar
52    27    52    1
53    28    53    1
54    29    30    1
55    29    54    1
56    29    55    1
57    30    31    2
@<TRIPOS>SUBSTRUCTURE
1   ZINC000058827971 1     RESIDUE    1   A     ZIN   1
@<TRIPOS>MOLECULE
ZINC000072311852
60    63    1     0     0
SMALL
USER_CHARGES
@<TRIPOS>ATOM
1      C1     -0.4105    1.0494    2.0108 C.3      1 ZINC000072311852   -0.1500
2      C2     -0.3688   -0.2235    1.1629 C.3      1 ZINC000072311852    0.1600
3      C3     -1.7650   -0.7067    0.8658 C.ar     1 ZINC000072311852   -0.0800
4      C4     -2.3821   -1.5993    1.7242 C.ar     1 ZINC000072311852   -0.1100
5      C5     -3.6599   -2.0459    1.4578 C.ar     1 ZINC000072311852   -0.0600
6      C6     -4.3303   -1.5951    0.3196 C.ar     1 ZINC000072311852   -0.1200
7      C7     -5.7000   -2.0692    0.0282 C.2      1 ZINC000072311852    0.5500
8      O8     -6.4657   -2.3131    0.9402 O.2      1 ZINC000072311852   -0.5300
9      N9     -6.0997   -2.2309   -1.2488 N.am     1 ZINC000072311852   -0.6000
10     C10    -5.1127   -2.0453   -2.3305 C.3      1 ZINC000072311852    0.1000
11     C11    -5.2681   -3.1204   -3.4193 C.3      1 ZINC000072311852   -0.1300
12     C12    -5.5536   -4.4588   -2.7747 C.3      1 ZINC000072311852    0.0800
13     N13    -7.0006   -4.6478   -2.6857 N.3      1 ZINC000072311852   -0.5500
14     C14    -7.3605   -6.0581   -2.8849 C.3      1 ZINC000072311852    0.0500
15     C15    -7.2727   -6.3967   -4.3507 C.2      1 ZINC000072311852    0.5300
16     O16    -7.0611   -5.5219   -5.1636 O.2      1 ZINC000072311852   -0.5100
17     N17    -7.4294   -7.6718   -4.7583 N.am     1 ZINC000072311852   -0.6300
18     C18    -7.6958   -8.8240   -3.8849 C.3      1 ZINC000072311852    0.1000
19     C19    -7.7722  -10.0743   -4.7863 C.3      1 ZINC000072311852   -0.1300
20     C20    -6.9835   -9.6403   -6.0500 C.3      1 ZINC000072311852   -0.1300
21     C21    -7.3682   -8.1411   -6.1545 C.3      1 ZINC000072311852    0.1100
22     C22    -7.6330   -4.1209   -1.5355 C.3      1 ZINC000072311852    0.0600
23     C23    -7.4804   -2.5861   -1.5071 C.3      1 ZINC000072311852    0.1200
24     C24    -3.7022   -0.6943   -0.5419 C.ar     1 ZINC000072311852   -0.0900
25     C25    -2.4261   -0.2515   -0.2612 C.ar     1 ZINC000072311852   -0.1000
26     N26     0.3790    0.0092   -0.0848 N.am     1 ZINC000072311852   -0.7200
27     C27     1.4332   -0.8262   -0.0630 C.2      1 ZINC000072311852    0.7100
28     O28     2.2616   -0.8919   -0.9500 O.2      1 ZINC000072311852   -0.5400
29     N29     1.4680   -1.5765    1.0441 N.am     1 ZINC000072311852   -0.6800
30     C30     0.4321   -1.3040    1.8620 C.2      1 ZINC000072311852    0.5400
31     O31     0.1913   -1.8159    2.9343 O.2      1 ZINC000072311852   -0.4500
32     H32     0.6055    1.4044    2.1834 H        1 ZINC000072311852    0.0800
33     H33    -0.9794    1.8170    1.4862 H        1 ZINC000072311852    0.0800
34     H34    -0.8873    0.8336    2.9669 H        1 ZINC000072311852    0.0900
35     H35    -1.8622   -1.9473    2.6045 H        1 ZINC000072311852    0.1500
36     H36    -4.1403   -2.7432    2.1282 H        1 ZINC000072311852    0.1400
37     H37    -5.2541   -1.0614   -2.7778 H        1 ZINC000072311852    0.0700
38     H38    -4.1083   -2.1045   -1.9113 H        1 ZINC000072311852    0.0900
39     H39    -6.0931   -2.8520   -4.0791 H        1 ZINC000072311852    0.0900
40     H40    -4.3471   -3.1858   -3.9987 H        1 ZINC000072311852    0.0800
41     H41    -5.1186   -5.2546   -3.3791 H        1 ZINC000072311852    0.0700
42     H42    -5.1210   -4.4813   -1.7744 H        1 ZINC000072311852    0.0400
43     H43    -6.6731   -6.6912   -2.3239 H        1 ZINC000072311852    0.0600
44     H44    -8.3785   -6.2264   -2.5334 H        1 ZINC000072311852    0.1000
45     H45    -6.8872   -8.9365   -3.1627 H        1 ZINC000072311852    0.0700
46     H46    -8.6433   -8.6835   -3.3647 H        1 ZINC000072311852    0.0700
47     H47    -7.2916  -10.9263   -4.3054 H        1 ZINC000072311852    0.0800
48     H48    -8.8072  -10.3055   -5.0381 H        1 ZINC000072311852    0.0800
49     H49    -5.9105   -9.7624   -5.9019 H        1 ZINC000072311852    0.0800
50     H50    -7.3202  -10.1905   -6.9287 H        1 ZINC000072311852    0.0900
51     H51    -8.3380   -8.0313   -6.6400 H        1 ZINC000072311852    0.0700
52     H52    -6.6039   -7.5907   -6.7031 H        1 ZINC000072311852    0.0800
53     H53    -8.6916   -4.3801   -1.5538 H        1 ZINC000072311852    0.0900
54     H54    -7.1734   -4.5459   -0.6432 H        1 ZINC000072311852    0.0300
55     H55    -8.1120   -2.1733   -0.7206 H        1 ZINC000072311852    0.0900
56     H56    -7.7840   -2.1736   -2.4692 H        1 ZINC000072311852    0.0900
57     H57    -4.2154   -0.3420   -1.4245 H        1 ZINC000072311852    0.1400
58     H58    -1.9391    0.4457   -0.9268 H        1 ZINC000072311852    0.1300
59     H59     0.1547    0.6411   -0.7857 H        1 ZINC000072311852    0.4400
60     H60     2.1537   -2.2357    1.2344 H        1 ZINC000072311852    0.4400
@<TRIPOS>BOND
1     1     2     1
2     1     32    1
3     1     33    1
4     1     34    1
5     2     30    1
6     2     3     1
7     2     26    1
8     3     25    ar
9     3     4     ar
10    4     5     ar
11    4     35    1
12    5     6     ar
13    5     36    1
14    6     7     1
15    6     24    ar
16    7     8     2
17    7     9     am
18    9     23    1
19    9     10    1
20    10    11    1
21    10    37    1
22    10    38    1
23    11    12    1
24    11    39    1
25    11    40    1
26    12    13    1
27    12    41    1
28    12    42    1
29    13    14    1
30    13    22    1
31    14    15    1
32    14    43    1
33    14    44    1
34    15    16    2
35    15    17    am
36    17    21    1
37    17    18    1
38    18    19    1
39    18    45    1
40    18    46    1
41    19    20    1
42    19    47    1
43    19    48    1
44    20    21    1
45    20    49    1
46    20    50    1
47    21    51    1
48    21    52    1
49    22    23    1
50    22    53    1
51    22    54    1
52    23    55    1
53    23    56    1
54    24    25    ar
55    24    57    1
56    25    58    1
57    26    27    am
58    26    59    1
59    27    28    2
60    27    29    am
61    29    30    am
62    29    60    1
63    30    31    2
@<TRIPOS>SUBSTRUCTURE
1   ZINC000072311852 1     RESIDUE    1   A     ZIN   1

@<TRIPOS>MOLECULE
ZINC000072311852
59    62    1     0     0
SMALL
USER_CHARGES
@<TRIPOS>ATOM
1      C1     -0.9591    2.0485    1.4324 C.3      1 ZINC000072311852   -0.1300
2      C2     -0.7393    0.7675    0.6252 C.3      1 ZINC000072311852    0.1000
3      C3     -2.0458    0.0483    0.4088 C.ar     1 ZINC000072311852   -0.0300
4      C4     -3.0576    0.1613    1.3458 C.ar     1 ZINC000072311852   -0.1200
5      C5     -4.2559   -0.4948    1.1540 C.ar     1 ZINC000072311852   -0.0600
6      C6     -4.4465   -1.2735    0.0115 C.ar     1 ZINC000072311852   -0.1500
7      C7     -5.7283   -1.9791   -0.2008 C.2      1 ZINC000072311852    0.5600
8      O8     -6.7670   -1.4831    0.1900 O.2      1 ZINC000072311852   -0.5400
9      N9     -5.7452   -3.1721   -0.8276 N.am     1 ZINC000072311852   -0.6000
10     C10    -4.4601   -3.8063   -1.1814 C.3      1 ZINC000072311852    0.0900
11     C11    -4.4862   -5.3178   -0.8984 C.3      1 ZINC000072311852   -0.1300
12     C12    -5.2119   -5.5785    0.4031 C.3      1 ZINC000072311852    0.0800
13     N13    -6.6250   -5.8259    0.1217 N.3      1 ZINC000072311852   -0.5500
14     C14    -7.1779   -6.8273    1.0433 C.3      1 ZINC000072311852    0.0500
15     C15    -6.7178   -8.2008    0.6277 C.2      1 ZINC000072311852    0.5300
16     O16    -6.1014   -8.3467   -0.4066 O.2      1 ZINC000072311852   -0.5100
17     N17    -6.9913   -9.2671    1.4053 N.am     1 ZINC000072311852   -0.6300
18     C18    -7.7319   -9.2343    2.6749 C.3      1 ZINC000072311852    0.1000
19     C19    -7.7759  -10.6784    3.2172 C.3      1 ZINC000072311852   -0.1300
20     C20    -6.5715  -11.3526    2.5084 C.3      1 ZINC000072311852   -0.1300
21     C21    -6.6030  -10.6605    1.1204 C.3      1 ZINC000072311852    0.1100
22     C22    -7.4599   -4.6863    0.0510 C.3      1 ZINC000072311852    0.0600
23     C23    -7.0238   -3.7860   -1.1231 C.3      1 ZINC000072311852    0.1200
24     C24    -3.4220   -1.3829   -0.9300 C.ar     1 ZINC000072311852   -0.0900
25     C25    -2.2304   -0.7175   -0.7286 C.ar     1 ZINC000072311852   -0.1100
26     N26    -0.0917    1.0710   -0.6626 N.am     1 ZINC000072311852   -0.7700
27     C27     1.0874    0.4233   -0.6625 C.2      1 ZINC000072311852    0.6600
28     O28     1.8787    0.4605   -1.5842 O.2      1 ZINC000072311852   -0.6100
29     N29     1.2915   -0.2664    0.4656 N.pl3    1 ZINC000072311852   -0.7200
30     C30     0.2584   -0.1369    1.3212 C.2      1 ZINC000072311852    0.5100
31     O31     0.1499   -0.6387    2.4195 O.2      1 ZINC000072311852   -0.5600
32     H32    -0.0106    2.5734    1.5462 H        1 ZINC000072311852    0.0600
33     H33    -1.6689    2.6898    0.9100 H        1 ZINC000072311852    0.0600
34     H34    -1.3542    1.7948    2.4161 H        1 ZINC000072311852    0.0700
35     H35    -2.9088    0.7642    2.2294 H        1 ZINC000072311852    0.1300
36     H36    -5.0446   -0.4064    1.8865 H        1 ZINC000072311852    0.1300
37     H37    -4.2623   -3.6450   -2.2411 H        1 ZINC000072311852    0.0700
38     H38    -3.6627   -3.3475   -0.5968 H        1 ZINC000072311852    0.1000
39     H39    -5.0021   -5.8301   -1.7104 H        1 ZINC000072311852    0.0900
40     H40    -3.4647   -5.6910   -0.8254 H        1 ZINC000072311852    0.0800
41     H41    -4.7796   -6.4510    0.8929 H        1 ZINC000072311852    0.0700
42     H42    -5.1166   -4.7093    1.0540 H        1 ZINC000072311852    0.0400
43     H43    -6.8321   -6.6192    2.0559 H        1 ZINC000072311852    0.0600
44     H44    -8.2667   -6.7849    1.0153 H        1 ZINC000072311852    0.1000
45     H45    -7.2195   -8.5866    3.3863 H        1 ZINC000072311852    0.0700
46     H46    -8.7454   -8.8716    2.5036 H        1 ZINC000072311852    0.0700
47     H47    -7.6417  -10.6885    4.2988 H        1 ZINC000072311852    0.0800
48     H48    -8.7098  -11.1667    2.9388 H        1 ZINC000072311852    0.0800
49     H49    -5.6402  -11.1402    3.0335 H        1 ZINC000072311852    0.0800
50     H50    -6.7270  -12.4270    2.4109 H        1 ZINC000072311852    0.0800
51     H51    -7.3380  -11.1401    0.4739 H        1 ZINC000072311852    0.0700
52     H52    -5.6155  -10.6889    0.6598 H        1 ZINC000072311852    0.0800
53     H53    -8.4922   -5.0028   -0.0981 H        1 ZINC000072311852    0.0800
54     H54    -7.3861   -4.1255    0.9828 H        1 ZINC000072311852    0.0300
55     H55    -7.7701   -3.0070   -1.2795 H        1 ZINC000072311852    0.0900
56     H56    -6.9335   -4.3877   -2.0275 H        1 ZINC000072311852    0.0900
57     H57    -3.5630   -1.9842   -1.8160 H        1 ZINC000072311852    0.1300
58     H58    -1.4369   -0.8010   -1.4565 H        1 ZINC000072311852    0.1300
59     H59    -0.4465    1.6288   -1.3725 H        1 ZINC000072311852    0.4000
@<TRIPOS>BOND
1     1     2     1
2     1     32    1
3     1     33    1
4     1     34    1
5     2     30    1
6     2     3     1
7     2     26    1
8     3     25    ar
9     3     4     ar
10    4     5     ar
11    4     35    1
12    5     6     ar
13    5     36    1
14    6     7     1
15    6     24    ar
16    7     8     2
17    7     9     am
18    9     23    1
19    9     10    1
20    10    11    1
21    10    37    1
22    10    38    1
23    11    12    1
24    11    39    1
25    11    40    1
26    12    13    1
27    12    41    1
28    12    42    1
29    13    14    1
30    13    22    1
31    14    15    1
32    14    43    1
33    14    44    1
34    15    16    2
35    15    17    am
36    17    21    1
37    17    18    1
38    18    19    1
39    18    45    1
40    18    46    1
41    19    20    1
42    19    47    1
43    19    48    1
44    20    21    1
45    20    49    1
46    20    50    1
47    21    51    1
48    21    52    1
49    22    23    1
50    22    53    1
51    22    54    1
52    23    55    1
53    23    56    1
54    24    25    ar
55    24    57    1
56    25    58    1
57    26    27    am
58    26    59    1
59    27    28    2
60    27    29    1
61    29    30    1
62    30    31    2
@<TRIPOS>SUBSTRUCTURE
1   ZINC000072311852 1     RESIDUE    1   A     ZIN   1

@<TRIPOS>MOLECULE
ZINC000072311852
61    64    1     0     0
SMALL
USER_CHARGES
@<TRIPOS>ATOM
1      C1     -0.2748    1.1841    1.6195 C.3      1 ZINC000072311852   -0.1500
2      C2     -0.2563   -0.0653    0.7366 C.3      1 ZINC000072311852    0.1600
3      C3     -1.6534   -0.5954    0.5415 C.ar     1 ZINC000072311852   -0.0600
4      C4     -2.1640   -1.5319    1.4228 C.ar     1 ZINC000072311852   -0.1100
5      C5     -3.4421   -2.0217    1.2496 C.ar     1 ZINC000072311852   -0.0500
6      C6     -4.2205   -1.5700    0.1828 C.ar     1 ZINC000072311852   -0.1400
7      C7     -5.5912   -2.0902   -0.0086 C.2      1 ZINC000072311852    0.5600
8      O8     -6.2677   -2.3899    0.9558 O.2      1 ZINC000072311852   -0.5100
9      N9     -6.0906   -2.2320   -1.2524 N.am     1 ZINC000072311852   -0.6200
10     C10    -5.2061   -1.9793   -2.4078 C.3      1 ZINC000072311852    0.0800
11     C11    -5.4237   -3.0300   -3.5118 C.3      1 ZINC000072311852   -0.1500
12     C12    -5.6149   -4.3913   -2.8806 C.3      1 ZINC000072311852    0.0000
13     N13    -7.0426   -4.6407   -2.6952 N.4      1 ZINC000072311852   -0.3500
14     H14    -7.5436   -4.2012   -3.4528 H        1 ZINC000072311852    0.4300
15     C15    -7.2733   -6.0897   -2.7686 C.3      1 ZINC000072311852   -0.0400
16     C16    -6.9789   -6.5751   -4.1646 C.2      1 ZINC000072311852    0.5100
17     O17    -6.7152   -5.7787   -5.0405 O.2      1 ZINC000072311852   -0.5300
18     N18    -7.0087   -7.8941   -4.4397 N.am     1 ZINC000072311852   -0.6000
19     C19    -7.3186   -8.9630   -3.4790 C.3      1 ZINC000072311852    0.0800
20     C20    -7.2069  -10.3043   -4.2340 C.3      1 ZINC000072311852   -0.1300
21     C21    -6.2888   -9.9521   -5.4342 C.3      1 ZINC000072311852   -0.1400
22     C22    -6.7422   -8.5037   -5.7553 C.3      1 ZINC000072311852    0.1000
23     C23    -7.5761   -4.1690   -1.4752 C.3      1 ZINC000072311852   -0.0400
24     C24    -7.4738   -2.6325   -1.4079 C.3      1 ZINC000072311852    0.1000
25     C25    -3.6996   -0.6249   -0.7023 C.ar     1 ZINC000072311852   -0.0900
26     C26    -2.4219   -0.1394   -0.5148 C.ar     1 ZINC000072311852   -0.1000
27     N27     0.3766    0.2266   -0.5612 N.am     1 ZINC000072311852   -0.7200
28     C28     1.4592   -0.5672   -0.6484 C.2      1 ZINC000072311852    0.7100
29     O29     2.2133   -0.5790   -1.6016 O.2      1 ZINC000072311852   -0.5300
30     N30     1.6131   -1.3422    0.4313 N.am     1 ZINC000072311852   -0.6800
31     C31     0.6391   -1.1302    1.3382 C.2      1 ZINC000072311852    0.5400
32     O32     0.5069   -1.6769    2.4122 O.2      1 ZINC000072311852   -0.4500
33     H33     0.7381    1.5744    1.7181 H        1 ZINC000072311852    0.0800
34     H34    -0.9132    1.9413    1.1643 H        1 ZINC000072311852    0.0900
35     H35    -0.6626    0.9268    2.6052 H        1 ZINC000072311852    0.0900
36     H36    -1.5606   -1.8805    2.2479 H        1 ZINC000072311852    0.1500
37     H37    -3.8392   -2.7531    1.9378 H        1 ZINC000072311852    0.1400
38     H38    -5.4174   -0.9886   -2.8102 H        1 ZINC000072311852    0.0900
39     H39    -4.1678   -2.0165   -2.0783 H        1 ZINC000072311852    0.1100
40     H40    -6.3098   -2.7703   -4.0911 H        1 ZINC000072311852    0.0900
41     H41    -4.5540   -3.0527   -4.1684 H        1 ZINC000072311852    0.1300
42     H42    -5.1932   -5.1569   -3.5318 H        1 ZINC000072311852    0.1400
43     H43    -5.1123   -4.4179   -1.9137 H        1 ZINC000072311852    0.1300
44     H44    -6.6181   -6.5982   -2.0614 H        1 ZINC000072311852    0.1600
45     H45    -8.3126   -6.3051   -2.5207 H        1 ZINC000072311852    0.1600
46     H46    -6.6042   -8.9403   -2.6560 H        1 ZINC000072311852    0.0800
47     H47    -8.3315   -8.8358   -3.0969 H        1 ZINC000072311852    0.0800
48     H48    -6.7440  -11.0640   -3.6043 H        1 ZINC000072311852    0.0900
49     H49    -8.1861  -10.6340   -4.5813 H        1 ZINC000072311852    0.0900
50     H50    -5.2385   -9.9810   -5.1443 H        1 ZINC000072311852    0.0800
51     H51    -6.4779  -10.6150   -6.2785 H        1 ZINC000072311852    0.1000
52     H52    -7.6463   -8.5153   -6.3641 H        1 ZINC000072311852    0.0800
53     H53    -5.9466   -7.9617   -6.2666 H        1 ZINC000072311852    0.0900
54     H54    -8.6221   -4.4661   -1.3997 H        1 ZINC000072311852    0.1500
55     H55    -7.0189   -4.6038   -0.6454 H        1 ZINC000072311852    0.1300
56     H56    -8.0520   -2.2677   -0.5589 H        1 ZINC000072311852    0.1300
57     H57    -7.8712   -2.2023   -2.3272 H        1 ZINC000072311852    0.1000
58     H58    -4.2967   -0.2716   -1.5300 H        1 ZINC000072311852    0.1400
59     H59    -2.0177    0.5922   -1.1987 H        1 ZINC000072311852    0.1400
60     H60     0.0719    0.8660   -1.2239 H        1 ZINC000072311852    0.4400
61     H61     2.3362   -1.9784    0.5468 H        1 ZINC000072311852    0.4400
@<TRIPOS>BOND
1     1     2     1
2     1     33    1
3     1     34    1
4     1     35    1
5     2     31    1
6     2     3     1
7     2     27    1
8     3     26    ar
9     3     4     ar
10    4     5     ar
11    4     36    1
12    5     6     ar
13    5     37    1
14    6     7     1
15    6     25    ar
16    7     8     2
17    7     9     am
18    9     24    1
19    9     10    1
20    10    11    1
21    10    38    1
22    10    39    1
23    11    12    1
24    11    40    1
25    11    41    1
26    12    13    1
27    12    42    1
28    12    43    1
29    13    14    1
30    13    15    1
31    13    23    1
32    15    16    1
33    15    44    1
34    15    45    1
35    16    17    2
36    16    18    am
37    18    22    1
38    18    19    1
39    19    20    1
40    19    46    1
41    19    47    1
42    20    21    1
43    20    48    1
44    20    49    1
45    21    22    1
46    21    50    1
47    21    51    1
48    22    52    1
49    22    53    1
50    23    24    1
51    23    54    1
52    23    55    1
53    24    56    1
54    24    57    1
55    25    26    ar
56    25    58    1
57    26    59    1
58    27    28    am
59    27    60    1
60    28    29    2
61    28    30    am
62    30    31    am
63    30    61    1
64    31    32    2
@<TRIPOS>SUBSTRUCTURE
1   ZINC000072311852 1     RESIDUE    1   A     ZIN   1

@<TRIPOS>MOLECULE
ZINC000072311852
61    64    1     0     0
SMALL
USER_CHARGES
@<TRIPOS>ATOM
1      C1      0.8535    0.8914    1.2919 C.3      1 ZINC000072311852   -0.1500
2      C2     -0.0827    1.5334    0.2661 C.3      1 ZINC000072311852    0.1600
3      C3     -1.3840    0.7769    0.1918 C.ar     1 ZINC000072311852   -0.0600
4      C4     -1.5239   -0.2663   -0.7062 C.ar     1 ZINC000072311852   -0.1100
5      C5     -2.7126   -0.9626   -0.7796 C.ar     1 ZINC000072311852   -0.0900
6      C6     -3.7753   -0.6128    0.0550 C.ar     1 ZINC000072311852   -0.1400
7      C7     -5.0519   -1.3550   -0.0178 C.2      1 ZINC000072311852    0.5600
8      O8     -5.5919   -1.7370    1.0020 O.2      1 ZINC000072311852   -0.5100
9      N9     -5.6170   -1.6079   -1.2150 N.am     1 ZINC000072311852   -0.6200
10     C10    -4.8989   -1.2042   -2.4407 C.3      1 ZINC000072311852    0.0800
11     C11    -5.8657   -0.5996   -3.4751 C.3      1 ZINC000072311852   -0.1500
12     C12    -6.8786    0.2731   -2.7675 C.3      1 ZINC000072311852    0.0000
13     N13    -8.0715   -0.5166   -2.4700 N.4      1 ZINC000072311852   -0.3500
14     H14    -8.2005   -1.1897   -3.2105 H        1 ZINC000072311852    0.4300
15     C15    -9.2321    0.3838   -2.4575 C.3      1 ZINC000072311852   -0.0400
16     C16    -9.4741    0.9108   -3.8485 C.2      1 ZINC000072311852    0.5100
17     O17    -8.8213    0.4882   -4.7791 O.2      1 ZINC000072311852   -0.5300
18     N18   -10.4160    1.8517   -4.0582 N.am     1 ZINC000072311852   -0.6000
19     C19   -11.2709    2.4537   -3.0247 C.3      1 ZINC000072311852    0.0800
20     C20   -12.2079    3.4556   -3.7315 C.3      1 ZINC000072311852   -0.1300
21     C21   -12.2158    2.9489   -5.1980 C.3      1 ZINC000072311852   -0.1400
22     C22   -10.7552    2.4524   -5.3611 C.3      1 ZINC000072311852    0.1000
23     C23    -8.0355   -1.2092   -1.2394 C.3      1 ZINC000072311852   -0.0500
24     C24    -6.9041   -2.2712   -1.2534 C.3      1 ZINC000072311852    0.1000
25     C25    -3.6274    0.4403    0.9590 C.ar     1 ZINC000072311852   -0.0600
26     C26    -2.4316    1.1250    1.0259 C.ar     1 ZINC000072311852   -0.1000
27     N27    -0.3207    2.9492    0.5963 N.am     1 ZINC000072311852   -0.7200
28     C28     0.1455    3.6695   -0.4398 C.2      1 ZINC000072311852    0.7100
29     O29     0.1048    4.8831   -0.4915 O.2      1 ZINC000072311852   -0.5300
30     N30     0.6590    2.9007   -1.4069 N.am     1 ZINC000072311852   -0.6800
31     C31     0.5788    1.5917   -1.0966 C.2      1 ZINC000072311852    0.5400
32     O32     0.9576    0.6556   -1.7673 O.2      1 ZINC000072311852   -0.4500
33     H33     1.7728    1.4732    1.3589 H        1 ZINC000072311852    0.0800
34     H34     0.3651    0.8701    2.2661 H        1 ZINC000072311852    0.0900
35     H35     1.0895   -0.1264    0.9814 H        1 ZINC000072311852    0.0900
36     H36    -0.7009   -0.5359   -1.3514 H        1 ZINC000072311852    0.1500
37     H37    -2.8208   -1.7762   -1.4815 H        1 ZINC000072311852    0.1400
38     H38    -4.1411   -0.4639   -2.1840 H        1 ZINC000072311852    0.1100
39     H39    -4.4119   -2.0777   -2.8741 H        1 ZINC000072311852    0.0900
40     H40    -5.3038    0.0019   -4.1896 H        1 ZINC000072311852    0.1300
41     H41    -6.3822   -1.4019   -4.0021 H        1 ZINC000072311852    0.0900
42     H42    -6.4496    0.6484   -1.8385 H        1 ZINC000072311852    0.1300
43     H43    -7.1481    1.1116   -3.4096 H        1 ZINC000072311852    0.1400
44     H44   -10.1121   -0.1624   -2.1177 H        1 ZINC000072311852    0.1600
45     H45    -9.0383    1.2170   -1.7819 H        1 ZINC000072311852    0.1600
46     H46   -11.8595    1.6791   -2.5331 H        1 ZINC000072311852    0.0800
47     H47   -10.6553    2.9754   -2.2920 H        1 ZINC000072311852    0.0800
48     H48   -13.2097    3.4145   -3.3039 H        1 ZINC000072311852    0.0900
49     H49   -11.8046    4.4667   -3.6750 H        1 ZINC000072311852    0.0900
50     H50   -12.9262    2.1321   -5.3253 H        1 ZINC000072311852    0.0800
51     H51   -12.4298    3.7623   -5.8913 H        1 ZINC000072311852    0.1000
52     H52   -10.0927    3.2890   -5.5831 H        1 ZINC000072311852    0.0800
53     H53   -10.6956    1.7010   -6.1485 H        1 ZINC000072311852    0.0900
54     H54    -7.8562   -0.5002   -0.4312 H        1 ZINC000072311852    0.1300
55     H55    -8.9923   -1.7050   -1.0760 H        1 ZINC000072311852    0.1500
56     H56    -6.9798   -2.8693   -2.1615 H        1 ZINC000072311852    0.1000
57     H57    -7.0057   -2.9203   -0.3837 H        1 ZINC000072311852    0.1300
58     H58    -4.4459    0.7161    1.6073 H        1 ZINC000072311852    0.1400
59     H59    -2.3157    1.9399    1.7252 H        1 ZINC000072311852    0.1400
60     H60    -0.7336    3.2946    1.4032 H        1 ZINC000072311852    0.4400
61     H61     1.0413    3.2431   -2.2300 H        1 ZINC000072311852    0.4400
@<TRIPOS>BOND
1     1     2     1
2     1     33    1
3     1     34    1
4     1     35    1
5     2     31    1
6     2     3     1
7     2     27    1
8     3     26    ar
9     3     4     ar
10    4     5     ar
11    4     36    1
12    5     6     ar
13    5     37    1
14    6     7     1
15    6     25    ar
16    7     8     2
17    7     9     am
18    9     24    1
19    9     10    1
20    10    11    1
21    10    38    1
22    10    39    1
23    11    12    1
24    11    40    1
25    11    41    1
26    12    13    1
27    12    42    1
28    12    43    1
29    13    14    1
30    13    15    1
31    13    23    1
32    15    16    1
33    15    44    1
34    15    45    1
35    16    17    2
36    16    18    am
37    18    22    1
38    18    19    1
39    19    20    1
40    19    46    1
41    19    47    1
42    20    21    1
43    20    48    1
44    20    49    1
45    21    22    1
46    21    50    1
47    21    51    1
48    22    52    1
49    22    53    1
50    23    24    1
51    23    54    1
52    23    55    1
53    24    56    1
54    24    57    1
55    25    26    ar
56    25    58    1
57    26    59    1
58    27    28    am
59    27    60    1
60    28    29    2
61    28    30    am
62    30    31    am
63    30    61    1
64    31    32    2
@<TRIPOS>SUBSTRUCTURE
1   ZINC000072311852 1     RESIDUE    1   A     ZIN   1
@<TRIPOS>MOLECULE
ZINC000085808825
44    47    1     0     0
SMALL
USER_CHARGES
@<TRIPOS>ATOM
1      N1      0.0175   -1.1399   -0.0042 N.1      1 ZINC000085808825   -0.4900
2      C2      0.0021   -0.0041    0.0020 C.1      1 ZINC000085808825    0.2900
3      C3     -0.0173    1.4278    0.0099 C.ar     1 ZINC000085808825   -0.1600
4      C4     -1.2365    2.1118    0.0310 C.ar     1 ZINC000085808825   -0.0200
5      C5     -1.2515    3.4882    0.0385 C.ar     1 ZINC000085808825   -0.1900
6      C6     -0.0549    4.1989    0.0250 C.ar     1 ZINC000085808825    0.3100
7      N7     -0.0738    5.5906    0.0326 N.pl3    1 ZINC000085808825   -1.0800
8      S8      1.3488    6.4381    0.0167 S.o2     1 ZINC000085808825    2.6300
9      O9      1.9900    6.1691    1.2559 O.2      1 ZINC000085808825   -1.0200
10     O10     1.9541    6.1823   -1.2433 O.2      1 ZINC000085808825   -1.0300
11     C11     0.9357    8.1509    0.0316 C.2      1 ZINC000085808825   -0.6900
12     C12     0.7275    8.9300   -1.0554 C.2      1 ZINC000085808825    0.1600
13     N13     0.4311   10.1899   -0.6419 N.pl3    1 ZINC000085808825   -0.5400
14     C14     0.4502   10.2171    0.7331 C.2      1 ZINC000085808825    0.0100
15     C15     0.1839   11.3843    1.5808 C.2      1 ZINC000085808825    0.2800
16     N16     0.2070   11.4138    2.9028 N.2      1 ZINC000085808825   -0.2700
17     N17    -0.0740   12.6027    3.3067 N.2      1 ZINC000085808825   -0.2200
18     C18    -0.2872   13.3786    2.2664 C.2      1 ZINC000085808825    0.1000
19     C19    -0.6350   14.8064    2.3039 C.2      1 ZINC000085808825    0.6300
20     O20    -0.8075   15.4180    1.2664 O.2      1 ZINC000085808825   -0.5100
21     N21    -0.7626   15.4380    3.4877 N.am     1 ZINC000085808825   -0.5900
22     C22    -0.5766   14.8244    4.8107 C.3      1 ZINC000085808825    0.1000
23     C23    -0.8496   15.9176    5.8652 C.3      1 ZINC000085808825   -0.1300
24     C24    -1.7255   16.9371    5.0902 C.3      1 ZINC000085808825   -0.1300
25     C25    -1.1057   16.8601    3.6701 C.3      1 ZINC000085808825    0.1100
26     O26    -0.1234   12.6249    1.1561 O.3      1 ZINC000085808825   -0.2000
27     C27     0.7588    8.9463    1.1700 C.2      1 ZINC000085808825    0.0100
28     C28     1.1605    3.5211    0.0045 C.ar     1 ZINC000085808825   -0.2700
29     C29     1.1828    2.1448    0.0023 C.ar     1 ZINC000085808825   -0.0100
30     H30    -2.1654    1.5609    0.0411 H        1 ZINC000085808825    0.1100
31     H31    -2.1929    4.0173    0.0545 H        1 ZINC000085808825    0.1200
32     H32     0.7876    8.6038   -2.0832 H        1 ZINC000085808825    0.2000
33     H33     0.2387   10.9446   -1.2201 H        1 ZINC000085808825    0.4200
34     H34    -1.2792   14.0012    4.9397 H        1 ZINC000085808825    0.0800
35     H35     0.4461   14.4606    4.9101 H        1 ZINC000085808825    0.0800
36     H36    -1.3959   15.5066    6.7142 H        1 ZINC000085808825    0.0900
37     H37     0.0821   16.3795    6.1920 H        1 ZINC000085808825    0.0800
38     H38    -2.7705   16.6272    5.0813 H        1 ZINC000085808825    0.0800
39     H39    -1.6202   17.9388    5.5067 H        1 ZINC000085808825    0.0900
40     H40    -0.2123   17.4818    3.6120 H        1 ZINC000085808825    0.0800
41     H41    -1.8342   17.1703    2.9210 H        1 ZINC000085808825    0.0900
42     H42     0.8535    8.6263    2.1972 H        1 ZINC000085808825    0.1700
43     H43     2.0872    4.0757   -0.0060 H        1 ZINC000085808825    0.1100
44     H44     2.1263    1.6195   -0.0133 H        1 ZINC000085808825    0.1100
@<TRIPOS>BOND
1     1     2     3
2     2     3     1
3     3     29    ar
4     3     4     ar
5     4     5     ar
6     4     30    1
7     5     6     ar
8     5     31    1
9     6     7     1
10    6     28    ar
11    7     8     1
12    8     9     2
13    8     10    2
14    8     11    1
15    11    27    1
16    11    12    2
17    12    13    1
18    12    32    1
19    13    14    1
20    13    33    1
21    14    15    1
22    14    27    2
23    15    26    1
24    15    16    2
25    16    17    1
26    17    18    2
27    18    19    1
28    18    26    1
29    19    20    2
30    19    21    am
31    21    25    1
32    21    22    1
33    22    23    1
34    22    34    1
35    22    35    1
36    23    24    1
37    23    36    1
38    23    37    1
39    24    25    1
40    24    38    1
41    24    39    1
42    25    40    1
43    25    41    1
44    27    42    1
45    28    29    ar
46    28    43    1
47    29    44    1
@<TRIPOS>SUBSTRUCTURE
1   ZINC000085808825 1     RESIDUE    1   A     ZIN   1

@<TRIPOS>MOLECULE
ZINC000085808825
45    48    1     0     0
SMALL
USER_CHARGES
@<TRIPOS>ATOM
1      N1     -0.5259    7.2833   -6.4647 N.1      1 ZINC000085808825   -0.4100
2      C2     -0.4496    6.9973   -5.3680 C.1      1 ZINC000085808825    0.2500
3      C3     -0.3533    6.6368   -3.9854 C.ar     1 ZINC000085808825   -0.0400
4      C4     -0.3257    5.2895   -3.6130 C.ar     1 ZINC000085808825   -0.0500
5      C5     -0.2331    4.9464   -2.2831 C.ar     1 ZINC000085808825   -0.1300
6      C6     -0.1672    5.9390   -1.3097 C.ar     1 ZINC000085808825    0.1700
7      N7     -0.0737    5.5886    0.0341 N.am     1 ZINC000085808825   -1.0600
8      S8      1.0311    6.3416    1.0112 S.o2     1 ZINC000085808825    2.7200
9      O9      0.8283    7.7381    0.8444 O.2      1 ZINC000085808825   -0.9400
10     O10     0.9603    5.6911    2.2726 O.2      1 ZINC000085808825   -0.9500
11     C11     2.6297    5.9895    0.3589 C.2      1 ZINC000085808825   -0.7600
12     C12     3.3672    4.8830    0.6108 C.2      1 ZINC000085808825    0.1700
13     N13     4.5392    4.9723   -0.0708 N.pl3    1 ZINC000085808825   -0.5200
14     C14     4.5514    6.1563   -0.7707 C.2      1 ZINC000085808825    0.0400
15     C15     5.6326    6.6408   -1.6356 C.2      1 ZINC000085808825    0.2600
16     N16     5.6485    7.7813   -2.3052 N.2      1 ZINC000085808825   -0.2600
17     N17     6.7540    7.8766   -2.9566 N.2      1 ZINC000085808825   -0.2200
18     C18     7.4868    6.8078   -2.7324 C.2      1 ZINC000085808825    0.1300
19     C19     8.8184    6.5340   -3.2920 C.2      1 ZINC000085808825    0.6300
20     O20     9.3980    5.5031   -3.0066 O.2      1 ZINC000085808825   -0.5100
21     N21     9.3971    7.4251   -4.1212 N.am     1 ZINC000085808825   -0.5900
22     C22     8.8143    8.7074   -4.5427 C.3      1 ZINC000085808825    0.1000
23     C23     9.8188    9.3722   -5.5073 C.3      1 ZINC000085808825   -0.1300
24     C24    10.6574    8.1708   -6.0180 C.3      1 ZINC000085808825   -0.1300
25     C25    10.7220    7.2783   -4.7509 C.3      1 ZINC000085808825    0.1100
26     O26     6.7945    6.0090   -1.8896 O.3      1 ZINC000085808825   -0.2000
27     C27     3.3598    6.8019   -0.5167 C.2      1 ZINC000085808825    0.0000
28     C28    -0.1940    7.2812   -1.6770 C.ar     1 ZINC000085808825   -0.1500
29     C29    -0.2811    7.6313   -3.0054 C.ar     1 ZINC000085808825   -0.0400
30     H30    -0.3772    4.5188   -4.3678 H        1 ZINC000085808825    0.1400
31     H31    -0.2121    3.9059   -1.9947 H        1 ZINC000085808825    0.1400
32     H32    -0.6557    4.9034    0.3982 H        1 ZINC000085808825    0.4300
33     H33     3.0727    4.0635    1.2496 H        1 ZINC000085808825    0.2000
34     H34     5.2492    4.3115   -0.0645 H        1 ZINC000085808825    0.4300
35     H35     7.8678    8.5340   -5.0548 H        1 ZINC000085808825    0.0800
36     H36     8.6564    9.3462   -3.6737 H        1 ZINC000085808825    0.0800
37     H37     9.2977    9.8574   -6.3326 H        1 ZINC000085808825    0.0900
38     H38    10.4498   10.0848   -4.9760 H        1 ZINC000085808825    0.0800
39     H39    10.1491    7.6589   -6.8351 H        1 ZINC000085808825    0.0800
40     H40    11.6547    8.4907   -6.3198 H        1 ZINC000085808825    0.0900
41     H41    11.5072    7.6276   -4.0805 H        1 ZINC000085808825    0.0800
42     H42    10.8934    6.2381   -5.0279 H        1 ZINC000085808825    0.0900
43     H43     3.0511    7.7580   -0.9129 H        1 ZINC000085808825    0.1800
44     H44    -0.1427    8.0489   -0.9192 H        1 ZINC000085808825    0.1700
45     H45    -0.3015    8.6729   -3.2898 H        1 ZINC000085808825    0.1400
@<TRIPOS>BOND
1     1     2     3
2     2     3     1
3     3     29    ar
4     3     4     ar
5     4     5     ar
6     4     30    1
7     5     6     ar
8     5     31    1
9     6     7     1
10    6     28    ar
11    7     8     am
12    7     32    1
13    8     9     2
14    8     10    2
15    8     11    1
16    11    27    1
17    11    12    2
18    12    13    1
19    12    33    1
20    13    14    1
21    13    34    1
22    14    15    1
23    14    27    2
24    15    26    1
25    15    16    2
26    16    17    1
27    17    18    2
28    18    19    1
29    18    26    1
30    19    20    2
31    19    21    am
32    21    25    1
33    21    22    1
34    22    23    1
35    22    35    1
36    22    36    1
37    23    24    1
38    23    37    1
39    23    38    1
40    24    25    1
41    24    39    1
42    24    40    1
43    25    41    1
44    25    42    1
45    27    43    1
46    28    29    ar
47    28    44    1
48    29    45    1
@<TRIPOS>SUBSTRUCTURE
1   ZINC000085808825 1     RESIDUE    1   A     ZIN   1
@<TRIPOS>MOLECULE
ZINC000095392875
57    60    1     0     0
SMALL
USER_CHARGES
@<TRIPOS>ATOM
1      O1      0.0021   -0.0041    0.0020 O.2      1 ZINC000095392875   -0.5400
2      C2     -0.0144    1.2086    0.0087 C.2      1 ZINC000095392875    0.5200
3      C3      1.2803    1.9798    0.0005 C.3      1 ZINC000095392875   -0.0700
4      C4      2.4389    1.0162   -0.0158 C.2      1 ZINC000095392875   -0.2400
5      C5      3.0222    0.6673   -1.1824 C.2      1 ZINC000095392875    0.1800
6      N6      4.0732   -0.2090   -1.1792 N.am     1 ZINC000095392875   -0.6400
7      C7      4.5304   -0.7264   -0.0244 C.2      1 ZINC000095392875    0.7000
8      O8      5.4652   -1.5037   -0.0445 O.2      1 ZINC000095392875   -0.5400
9      N9      3.9678   -0.3955    1.1527 N.am     1 ZINC000095392875   -0.6600
10     C10     2.9340    0.4692    1.1926 C.2      1 ZINC000095392875    0.5600
11     O11     2.4246    0.7695    2.2572 O.2      1 ZINC000095392875   -0.5100
12     N12    -1.1906    1.8666    0.0178 N.am     1 ZINC000095392875   -0.6100
13     C13    -1.2270    3.3354    0.0199 C.3      1 ZINC000095392875    0.1000
14     C14    -2.0891    3.8054    1.1958 C.3      1 ZINC000095392875   -0.1300
15     C15    -3.4646    3.1416    1.1131 C.3      1 ZINC000095392875   -0.0700
16     C16    -4.3393    3.6339    2.2713 C.3      1 ZINC000095392875   -0.1100
17     C17    -4.3299    5.1647    2.2686 C.3      1 ZINC000095392875   -0.1400
18     C18    -4.6131    5.6749    0.8849 C.2      1 ZINC000095392875    0.5200
19     O19    -4.9625    6.8295    0.7595 O.2      1 ZINC000095392875   -0.5600
20     N20    -4.5014    4.9267   -0.2133 N.am     1 ZINC000095392875   -0.5900
21     C21    -4.7590    5.5636   -1.5072 C.3      1 ZINC000095392875    0.1000
22     C22    -3.4549    6.1426   -2.0594 C.3      1 ZINC000095392875    0.0700
23     H23    -3.0045    6.8076   -1.3225 H        1 ZINC000095392875    0.0800
24     C24    -3.7375    6.9200   -3.3629 C.3      1 ZINC000095392875   -0.1500
25     C25    -2.5130    6.5457   -4.2419 C.3      1 ZINC000095392875   -0.1600
26     C26    -2.2563    5.0881   -3.7833 C.3      1 ZINC000095392875    0.0500
27     O27    -2.5469    5.0807   -2.3747 O.3      1 ZINC000095392875   -0.3800
28     C28    -4.1381    3.5151   -0.2069 C.3      1 ZINC000095392875    0.1200
29     C29    -3.3104    1.6225    1.2017 C.3      1 ZINC000095392875   -0.1200
30     C30    -2.4613    1.1288    0.0199 C.3      1 ZINC000095392875    0.1100
31     H31     1.3211    2.6120   -0.8866 H        1 ZINC000095392875    0.1100
32     H32     1.3381    2.6024    0.8933 H        1 ZINC000095392875    0.1100
33     H33     2.6608    1.0776   -2.1138 H        1 ZINC000095392875    0.1800
34     H34     4.4923   -0.4597   -2.0172 H        1 ZINC000095392875    0.4400
35     H35     4.3098   -0.7778    1.9760 H        1 ZINC000095392875    0.4300
36     H36    -0.2152    3.7259    0.1295 H        1 ZINC000095392875    0.0800
37     H37    -1.6590    3.6916   -0.9153 H        1 ZINC000095392875    0.1000
38     H38    -1.6074    3.5283    2.1335 H        1 ZINC000095392875    0.0700
39     H39    -2.2047    4.8884    1.1521 H        1 ZINC000095392875    0.0800
40     H40    -5.3594    3.2736    2.1389 H        1 ZINC000095392875    0.0700
41     H41    -3.9375    3.2668    3.2157 H        1 ZINC000095392875    0.0800
42     H42    -5.0938    5.5326    2.9536 H        1 ZINC000095392875    0.1000
43     H43    -3.3524    5.5213    2.5931 H        1 ZINC000095392875    0.1000
44     H44    -5.1520    4.8238   -2.2045 H        1 ZINC000095392875    0.0800
45     H45    -5.4869    6.3649   -1.3793 H        1 ZINC000095392875    0.1000
46     H46    -4.6646    6.5799   -3.8242 H        1 ZINC000095392875    0.0800
47     H47    -3.7670    7.9934   -3.1758 H        1 ZINC000095392875    0.0800
48     H48    -2.7635    6.5858   -5.3019 H        1 ZINC000095392875    0.0800
49     H49    -1.6586    7.1843   -4.0176 H        1 ZINC000095392875    0.0800
50     H50    -2.9201    4.4031   -4.3109 H        1 ZINC000095392875    0.0600
51     H51    -1.2152    4.8151   -3.9555 H        1 ZINC000095392875    0.0800
52     H52    -3.4520    3.3164   -1.0303 H        1 ZINC000095392875    0.0900
53     H53    -5.0369    2.9117   -0.3348 H        1 ZINC000095392875    0.0600
54     H54    -2.8202    1.3608    2.1395 H        1 ZINC000095392875    0.0800
55     H55    -4.2938    1.1541    1.1620 H        1 ZINC000095392875    0.0800
56     H56    -2.9954    1.3070   -0.9134 H        1 ZINC000095392875    0.0700
57     H57    -2.2633    0.0629    0.1322 H        1 ZINC000095392875    0.0900
@<TRIPOS>BOND
1     1     2     2
2     2     3     1
3     2     12    am
4     3     4     1
5     3     31    1
6     3     32    1
7     4     10    1
8     4     5     2
9     5     6     1
10    5     33    1
11    6     7     am
12    6     34    1
13    7     8     2
14    7     9     am
15    9     10    am
16    9     35    1
17    10    11    2
18    12    30    1
19    12    13    1
20    13    14    1
21    13    36    1
22    13    37    1
23    14    15    1
24    14    38    1
25    14    39    1
26    15    28    1
27    15    16    1
28    15    29    1
29    16    17    1
30    16    40    1
31    16    41    1
32    17    18    1
33    17    42    1
34    17    43    1
35    18    19    2
36    18    20    am
37    20    21    1
38    20    28    1
39    21    22    1
40    21    44    1
41    21    45    1
42    22    23    1
43    22    27    1
44    22    24    1
45    24    25    1
46    24    46    1
47    24    47    1
48    25    26    1
49    25    48    1
50    25    49    1
51    26    27    1
52    26    50    1
53    26    51    1
54    28    52    1
55    28    53    1
56    29    30    1
57    29    54    1
58    29    55    1
59    30    56    1
60    30    57    1
@<TRIPOS>SUBSTRUCTURE
1   ZINC000095392875 1     RESIDUE    1   A     ZIN   1

@<TRIPOS>MOLECULE
ZINC000095392875
56    59    1     0     0
SMALL
USER_CHARGES
@<TRIPOS>ATOM
1      O1      0.0021   -0.0041    0.0020 O.2      1 ZINC000095392875   -0.5300
2      C2     -0.0144    1.2086    0.0087 C.2      1 ZINC000095392875    0.5200
3      C3      1.2803    1.9798    0.0005 C.3      1 ZINC000095392875   -0.0600
4      C4      2.4389    1.0162   -0.0158 C.2      1 ZINC000095392875   -0.2800
5      C5      3.0222    0.6673   -1.1824 C.2      1 ZINC000095392875    0.1400
6      N6      4.0732   -0.2090   -1.1792 N.am     1 ZINC000095392875   -0.6700
7      C7      4.5304   -0.7264   -0.0244 C.2      1 ZINC000095392875    0.6400
8      O8      5.4652   -1.5037   -0.0445 O.2      1 ZINC000095392875   -0.6200
9      N9      3.9678   -0.3955    1.1527 N.pl3    1 ZINC000095392875   -0.7000
10     C10     2.9340    0.4692    1.1926 C.2      1 ZINC000095392875    0.5300
11     O11     2.4246    0.7695    2.2572 O.2      1 ZINC000095392875   -0.6000
12     N12    -1.1906    1.8666    0.0178 N.am     1 ZINC000095392875   -0.6200
13     C13    -1.2270    3.3354    0.0199 C.3      1 ZINC000095392875    0.1000
14     C14    -2.0891    3.8054    1.1958 C.3      1 ZINC000095392875   -0.1300
15     C15    -3.4646    3.1416    1.1131 C.3      1 ZINC000095392875   -0.0700
16     C16    -4.3393    3.6339    2.2713 C.3      1 ZINC000095392875   -0.1100
17     C17    -4.3299    5.1647    2.2686 C.3      1 ZINC000095392875   -0.1400
18     C18    -4.6131    5.6749    0.8849 C.2      1 ZINC000095392875    0.5200
19     O19    -4.9625    6.8295    0.7595 O.2      1 ZINC000095392875   -0.5600
20     N20    -4.5014    4.9267   -0.2133 N.am     1 ZINC000095392875   -0.5900
21     C21    -4.7590    5.5636   -1.5072 C.3      1 ZINC000095392875    0.1000
22     C22    -3.4549    6.1426   -2.0594 C.3      1 ZINC000095392875    0.0700
23     H23    -3.0045    6.8076   -1.3225 H        1 ZINC000095392875    0.0800
24     C24    -3.7375    6.9200   -3.3629 C.3      1 ZINC000095392875   -0.1500
25     C25    -2.5130    6.5457   -4.2419 C.3      1 ZINC000095392875   -0.1600
26     C26    -2.2563    5.0881   -3.7833 C.3      1 ZINC000095392875    0.0500
27     O27    -2.5469    5.0807   -2.3747 O.3      1 ZINC000095392875   -0.3700
28     C28    -4.1381    3.5151   -0.2069 C.3      1 ZINC000095392875    0.1200
29     C29    -3.3104    1.6225    1.2017 C.3      1 ZINC000095392875   -0.1200
30     C30    -2.4613    1.1288    0.0199 C.3      1 ZINC000095392875    0.1100
31     H31     1.3211    2.6120   -0.8866 H        1 ZINC000095392875    0.0800
32     H32     1.3381    2.6024    0.8933 H        1 ZINC000095392875    0.1000
33     H33     2.6608    1.0776   -2.1138 H        1 ZINC000095392875    0.1300
34     H34     4.4923   -0.4597   -2.0172 H        1 ZINC000095392875    0.3900
35     H35    -0.2152    3.7259    0.1295 H        1 ZINC000095392875    0.0800
36     H36    -1.6590    3.6916   -0.9153 H        1 ZINC000095392875    0.0900
37     H37    -1.6074    3.5283    2.1335 H        1 ZINC000095392875    0.0700
38     H38    -2.2047    4.8884    1.1521 H        1 ZINC000095392875    0.0700
39     H39    -5.3594    3.2736    2.1389 H        1 ZINC000095392875    0.0700
40     H40    -3.9375    3.2668    3.2157 H        1 ZINC000095392875    0.0800
41     H41    -5.0938    5.5326    2.9536 H        1 ZINC000095392875    0.1000
42     H42    -3.3524    5.5213    2.5931 H        1 ZINC000095392875    0.1000
43     H43    -5.1520    4.8238   -2.2045 H        1 ZINC000095392875    0.0800
44     H44    -5.4869    6.3649   -1.3793 H        1 ZINC000095392875    0.1000
45     H45    -4.6646    6.5799   -3.8242 H        1 ZINC000095392875    0.0800
46     H46    -3.7670    7.9934   -3.1758 H        1 ZINC000095392875    0.0800
47     H47    -2.7635    6.5858   -5.3019 H        1 ZINC000095392875    0.0800
48     H48    -1.6586    7.1843   -4.0176 H        1 ZINC000095392875    0.0800
49     H49    -2.9201    4.4031   -4.3109 H        1 ZINC000095392875    0.0600
50     H50    -1.2152    4.8151   -3.9555 H        1 ZINC000095392875    0.0900
51     H51    -3.4520    3.3164   -1.0303 H        1 ZINC000095392875    0.1000
52     H52    -5.0369    2.9117   -0.3348 H        1 ZINC000095392875    0.0600
53     H53    -2.8202    1.3608    2.1395 H        1 ZINC000095392875    0.0800
54     H54    -4.2938    1.1541    1.1620 H        1 ZINC000095392875    0.0700
55     H55    -2.9954    1.3070   -0.9134 H        1 ZINC000095392875    0.0600
56     H56    -2.2633    0.0629    0.1322 H        1 ZINC000095392875    0.0900
@<TRIPOS>BOND
1     1     2     2
2     2     3     1
3     2     12    am
4     3     4     1
5     3     31    1
6     3     32    1
7     4     10    1
8     4     5     2
9     5     6     1
10    5     33    1
11    6     7     am
12    6     34    1
13    7     8     2
14    7     9     1
15    9     10    1
16    10    11    2
17    12    30    1
18    12    13    1
19    13    14    1
20    13    35    1
21    13    36    1
22    14    15    1
23    14    37    1
24    14    38    1
25    15    28    1
26    15    16    1
27    15    29    1
28    16    17    1
29    16    39    1
30    16    40    1
31    17    18    1
32    17    41    1
33    17    42    1
34    18    19    2
35    18    20    am
36    20    21    1
37    20    28    1
38    21    22    1
39    21    43    1
40    21    44    1
41    22    23    1
42    22    27    1
43    22    24    1
44    24    25    1
45    24    45    1
46    24    46    1
47    25    26    1
48    25    47    1
49    25    48    1
50    26    27    1
51    26    49    1
52    26    50    1
53    28    51    1
54    28    52    1
55    29    30    1
56    29    53    1
57    29    54    1
58    30    55    1
59    30    56    1
@<TRIPOS>SUBSTRUCTURE
1   ZINC000095392875 1     RESIDUE    1   A     ZIN   1
@<TRIPOS>MOLECULE
ZINC000095520599
53    56    1     0     0
SMALL
USER_CHARGES
@<TRIPOS>ATOM
1      C1      1.2219    0.7898   -0.8654 C.3      1 ZINC000095520599    0.0300
2      O2      0.5762   -0.3576   -0.3100 O.3      1 ZINC000095520599   -0.3700
3      C3      1.3679   -1.0634    0.6477 C.3      1 ZINC000095520599    0.0300
4      C4      0.5930   -2.2479    1.1649 C.2      1 ZINC000095520599    0.5300
5      O5     -0.5269   -2.4662    0.7539 O.2      1 ZINC000095520599   -0.4500
6      N6      1.1445   -3.0646    2.0843 N.am     1 ZINC000095520599   -0.6400
7      C7      1.8857   -2.5171    3.2310 C.3      1 ZINC000095520599    0.1200
8      C8      1.1507   -2.8845    4.5263 C.3      1 ZINC000095520599   -0.0600
9      C9      0.7465   -4.3340    4.4642 C.2      1 ZINC000095520599   -0.0200
10     C10     0.6804   -5.0681    3.3316 C.2      1 ZINC000095520599    0.0000
11     N11     0.2825   -6.2994    3.6586 N.2      1 ZINC000095520599   -0.4700
12     C12     0.1018   -6.3620    4.9521 C.2      1 ZINC000095520599    0.1800
13     N13     0.3838   -5.1530    5.4900 N.pl3    1 ZINC000095520599   -0.5600
14     C14     1.0150   -4.5258    1.9691 C.3      1 ZINC000095520599    0.2800
15     C15    -0.0992   -4.8706    0.9831 C.3      1 ZINC000095520599   -0.1200
16     C16     0.2306   -4.2692   -0.3872 C.3      1 ZINC000095520599    0.0500
17     N17     1.5674   -4.7239   -0.7935 N.am     1 ZINC000095520599   -0.6000
18     C18     1.7552   -5.3242   -1.9855 C.2      1 ZINC000095520599    0.5900
19     O19     0.8358   -5.4036   -2.7780 O.2      1 ZINC000095520599   -0.5200
20     C20     3.0720   -5.8835   -2.3280 C.2      1 ZINC000095520599   -0.3100
21     C21     3.4591   -7.1368   -1.8649 C.2      1 ZINC000095520599    0.2000
22     N22     4.6562   -7.6155   -2.1916 N.2      1 ZINC000095520599   -0.5400
23     C23     5.4867   -6.9369   -2.9417 C.2      1 ZINC000095520599    0.4100
24     C24     6.8280   -7.5382   -3.2741 C.3      1 ZINC000095520599   -0.1200
25     N25     5.1804   -5.7200   -3.4253 N.am     1 ZINC000095520599   -0.6200
26     C26     3.9836   -5.1598   -3.1477 C.2      1 ZINC000095520599    0.5400
27     O27     3.6949   -4.0581   -3.5801 O.2      1 ZINC000095520599   -0.5200
28     C28     2.6958   -4.5115    0.1232 C.3      1 ZINC000095520599    0.1100
29     C29     2.3411   -5.1117    1.4878 C.3      1 ZINC000095520599   -0.1300
30     H30     2.1383    0.4827   -1.3694 H        1 ZINC000095520599    0.0500
31     H31     0.5561    1.2697   -1.5827 H        1 ZINC000095520599    0.0900
32     H32     1.4638    1.4923   -0.0678 H        1 ZINC000095520599    0.0400
33     H33     2.2873   -1.4090    0.1752 H        1 ZINC000095520599    0.0800
34     H34     1.6128   -0.3994    1.4767 H        1 ZINC000095520599    0.0800
35     H35     2.8907   -2.9387    3.2501 H        1 ZINC000095520599    0.0800
36     H36     1.9462   -1.4324    3.1414 H        1 ZINC000095520599    0.0900
37     H37     1.8116   -2.7261    5.3785 H        1 ZINC000095520599    0.0900
38     H38     0.2621   -2.2620    4.6309 H        1 ZINC000095520599    0.0800
39     H39    -0.2201   -7.2348    5.5007 H        1 ZINC000095520599    0.2100
40     H40     0.3362   -4.9145    6.4290 H        1 ZINC000095520599    0.4200
41     H41    -0.1837   -5.9537    0.8941 H        1 ZINC000095520599    0.0800
42     H42    -1.0429   -4.4603    1.3427 H        1 ZINC000095520599    0.0900
43     H43    -0.5062   -4.6009   -1.1187 H        1 ZINC000095520599    0.0900
44     H44     0.2190   -3.1813   -0.3211 H        1 ZINC000095520599    0.1400
45     H45     2.7924   -7.7169   -1.2440 H        1 ZINC000095520599    0.1700
46     H46     6.9123   -8.5192   -2.8066 H        1 ZINC000095520599    0.1100
47     H47     6.9219   -7.6416   -4.3552 H        1 ZINC000095520599    0.1000
48     H48     7.6198   -6.8887   -2.9011 H        1 ZINC000095520599    0.1000
49     H49     5.8199   -5.2446   -3.9785 H        1 ZINC000095520599    0.4200
50     H50     3.5852   -5.0024   -0.2719 H        1 ZINC000095520599    0.0800
51     H51     2.8829   -3.4432    0.2313 H        1 ZINC000095520599    0.0700
52     H52     3.1260   -4.8728    2.2054 H        1 ZINC000095520599    0.0800
53     H53     2.2486   -6.1939    1.3962 H        1 ZINC000095520599    0.0900
@<TRIPOS>BOND
1     1     2     1
2     1     30    1
3     1     31    1
4     1     32    1
5     2     3     1
6     3     4     1
7     3     33    1
8     3     34    1
9     4     5     2
10    4     6     am
11    6     14    1
12    6     7     1
13    7     8     1
14    7     35    1
15    7     36    1
16    8     9     1
17    8     37    1
18    8     38    1
19    9     13    1
20    9     10    2
21    10    11    1
22    10    14    1
23    11    12    2
24    12    13    1
25    12    39    1
26    13    40    1
27    14    29    1
28    14    15    1
29    15    16    1
30    15    41    1
31    15    42    1
32    16    17    1
33    16    43    1
34    16    44    1
35    17    18    am
36    17    28    1
37    18    19    2
38    18    20    1
39    20    26    1
40    20    21    2
41    21    22    1
42    21    45    1
43    22    23    2
44    23    24    1
45    23    25    1
46    24    46    1
47    24    47    1
48    24    48    1
49    25    26    am
50    25    49    1
51    26    27    2
52    28    29    1
53    28    50    1
54    28    51    1
55    29    52    1
56    29    53    1
@<TRIPOS>SUBSTRUCTURE
1   ZINC000095520599 1     RESIDUE    1   A     ZIN   1

@<TRIPOS>MOLECULE
ZINC000095520599
53    56    1     0     0
SMALL
USER_CHARGES
@<TRIPOS>ATOM
1      C1      1.2341    0.7740   -0.8851 C.3      1 ZINC000095520599    0.0300
2      O2      0.5826   -0.3650   -0.3191 O.3      1 ZINC000095520599   -0.3700
3      C3      1.3753   -1.0729    0.6362 C.3      1 ZINC000095520599    0.0300
4      C4      0.5940   -2.2480    1.1652 C.2      1 ZINC000095520599    0.5300
5      O5     -0.5308   -2.4585    0.7636 O.2      1 ZINC000095520599   -0.4500
6      N6      1.1454   -3.0649    2.0845 N.am     1 ZINC000095520599   -0.6400
7      C7      1.8870   -2.5191    3.2316 C.3      1 ZINC000095520599    0.1200
8      C8      1.1537   -2.8852    4.5276 C.3      1 ZINC000095520599   -0.0500
9      C9      0.7541   -4.3383    4.4700 C.2      1 ZINC000095520599    0.0200
10     C10     0.6898   -5.0665    3.3337 C.2      1 ZINC000095520599   -0.0300
11     N11     0.2903   -6.3195    3.6807 N.pl3    1 ZINC000095520599   -0.5500
12     C12     0.1257   -6.3241    5.0238 C.2      1 ZINC000095520599    0.1900
13     N13     0.4063   -5.1339    5.4860 N.2      1 ZINC000095520599   -0.4800
14     C14     1.0160   -4.5268    1.9705 C.3      1 ZINC000095520599    0.2700
15     C15    -0.1031   -4.8711    0.9897 C.3      1 ZINC000095520599   -0.1300
16     C16     0.2189   -4.2674   -0.3814 C.3      1 ZINC000095520599    0.0500
17     N17     1.5539   -4.7204   -0.7956 N.am     1 ZINC000095520599   -0.6000
18     C18     1.7360   -5.3186   -1.9895 C.2      1 ZINC000095520599    0.5900
19     O19     0.8125   -5.3976   -2.7774 O.2      1 ZINC000095520599   -0.5200
20     C20     3.0515   -5.8762   -2.3398 C.2      1 ZINC000095520599   -0.3100
21     C21     3.4420   -7.1299   -1.8807 C.2      1 ZINC000095520599    0.2000
22     N22     4.6378   -7.6071   -2.2144 N.2      1 ZINC000095520599   -0.5400
23     C23     5.4638   -6.9266   -2.9677 C.2      1 ZINC000095520599    0.4100
24     C24     6.8039   -7.5262   -3.3081 C.3      1 ZINC000095520599   -0.1200
25     N25     5.1540   -5.7092   -3.4478 N.am     1 ZINC000095520599   -0.6200
26     C26     3.9582   -5.1505   -3.1631 C.2      1 ZINC000095520599    0.5400
27     O27     3.6663   -4.0484   -3.5922 O.2      1 ZINC000095520599   -0.5100
28     C28     2.6867   -4.5085    0.1158 C.3      1 ZINC000095520599    0.1100
29     C29     2.3401   -5.1111    1.4814 C.3      1 ZINC000095520599   -0.1400
30     H30     2.1440    0.4564   -1.3943 H        1 ZINC000095520599    0.0500
31     H31     0.5671    1.2562   -1.5998 H        1 ZINC000095520599    0.0900
32     H32     1.4881    1.4783   -0.0929 H        1 ZINC000095520599    0.0500
33     H33     2.2881   -1.4288    0.1585 H        1 ZINC000095520599    0.0800
34     H34     1.6322   -0.4069    1.4600 H        1 ZINC000095520599    0.0800
35     H35     2.8916   -2.9416    3.2499 H        1 ZINC000095520599    0.0800
36     H36     1.9490   -1.4345    3.1423 H        1 ZINC000095520599    0.0900
37     H37     1.8140   -2.7218    5.3793 H        1 ZINC000095520599    0.0900
38     H38     0.2628   -2.2656    4.6304 H        1 ZINC000095520599    0.0800
39     H39     0.1498   -7.0677    3.0795 H        1 ZINC000095520599    0.4200
40     H40    -0.1862   -7.1715    5.6164 H        1 ZINC000095520599    0.2100
41     H41    -0.1871   -5.9541    0.8995 H        1 ZINC000095520599    0.0700
42     H42    -1.0452   -4.4622    1.3549 H        1 ZINC000095520599    0.1000
43     H43    -0.5216   -4.5986   -1.1095 H        1 ZINC000095520599    0.0900
44     H44     0.2068   -3.1796   -0.3137 H        1 ZINC000095520599    0.1400
45     H45     2.7791   -7.7116   -1.2573 H        1 ZINC000095520599    0.1700
46     H46     6.8915   -8.5079   -2.8426 H        1 ZINC000095520599    0.1100
47     H47     6.8922   -7.6279   -4.3897 H        1 ZINC000095520599    0.1000
48     H48     7.5971   -6.8766   -2.9382 H        1 ZINC000095520599    0.1000
49     H49     5.7903   -5.2324   -4.0035 H        1 ZINC000095520599    0.4200
50     H50     3.5745   -4.9978   -0.2849 H        1 ZINC000095520599    0.0800
51     H51     2.8734   -3.4401    0.2245 H        1 ZINC000095520599    0.0700
52     H52     3.1287   -4.8725    2.1950 H        1 ZINC000095520599    0.0900
53     H53     2.2480   -6.1932    1.3887 H        1 ZINC000095520599    0.0800
@<TRIPOS>BOND
1     1     2     1
2     1     30    1
3     1     31    1
4     1     32    1
5     2     3     1
6     3     4     1
7     3     33    1
8     3     34    1
9     4     5     2
10    4     6     am
11    6     14    1
12    6     7     1
13    7     8     1
14    7     35    1
15    7     36    1
16    8     9     1
17    8     37    1
18    8     38    1
19    9     13    1
20    9     10    2
21    10    11    1
22    10    14    1
23    11    12    1
24    11    39    1
25    12    13    2
26    12    40    1
27    14    29    1
28    14    15    1
29    15    16    1
30    15    41    1
31    15    42    1
32    16    17    1
33    16    43    1
34    16    44    1
35    17    18    am
36    17    28    1
37    18    19    2
38    18    20    1
39    20    26    1
40    20    21    2
41    21    22    1
42    21    45    1
43    22    23    2
44    23    24    1
45    23    25    1
46    24    46    1
47    24    47    1
48    24    48    1
49    25    26    am
50    25    49    1
51    26    27    2
52    28    29    1
53    28    50    1
54    28    51    1
55    29    52    1
56    29    53    1
@<TRIPOS>SUBSTRUCTURE
1   ZINC000095520599 1     RESIDUE    1   A     ZIN   1

@<TRIPOS>MOLECULE
ZINC000095520599
52    55    1     0     0
SMALL
USER_CHARGES
@<TRIPOS>ATOM
1      C1      1.2341    0.7740   -0.8851 C.3      1 ZINC000095520599    0.0300
2      O2      0.5826   -0.3650   -0.3191 O.3      1 ZINC000095520599   -0.3700
3      C3      1.3753   -1.0729    0.6362 C.3      1 ZINC000095520599    0.0300
4      C4      0.5940   -2.2480    1.1652 C.2      1 ZINC000095520599    0.5300
5      O5     -0.5308   -2.4585    0.7636 O.2      1 ZINC000095520599   -0.4500
6      N6      1.1454   -3.0649    2.0845 N.am     1 ZINC000095520599   -0.6400
7      C7      1.8870   -2.5191    3.2316 C.3      1 ZINC000095520599    0.1200
8      C8      1.1537   -2.8852    4.5276 C.3      1 ZINC000095520599   -0.0500
9      C9      0.7541   -4.3383    4.4700 C.2      1 ZINC000095520599    0.0100
10     C10     0.6898   -5.0665    3.3337 C.2      1 ZINC000095520599   -0.0200
11     N11     0.2903   -6.3195    3.6807 N.pl3    1 ZINC000095520599   -0.5500
12     C12     0.1257   -6.3241    5.0238 C.2      1 ZINC000095520599    0.1800
13     N13     0.4063   -5.1339    5.4860 N.2      1 ZINC000095520599   -0.4900
14     C14     1.0160   -4.5268    1.9705 C.3      1 ZINC000095520599    0.2700
15     C15    -0.1031   -4.8711    0.9897 C.3      1 ZINC000095520599   -0.1200
16     C16     0.2189   -4.2674   -0.3814 C.3      1 ZINC000095520599    0.0500
17     N17     1.5539   -4.7204   -0.7956 N.am     1 ZINC000095520599   -0.6100
18     C18     1.7360   -5.3186   -1.9895 C.2      1 ZINC000095520599    0.6100
19     O19     0.8125   -5.3976   -2.7774 O.2      1 ZINC000095520599   -0.5500
20     C20     3.0515   -5.8762   -2.3398 C.2      1 ZINC000095520599   -0.4000
21     C21     3.4420   -7.1299   -1.8807 C.2      1 ZINC000095520599    0.1900
22     N22     4.6378   -7.6071   -2.2144 N.2      1 ZINC000095520599   -0.6300
23     C23     5.4638   -6.9266   -2.9677 C.2      1 ZINC000095520599    0.3500
24     C24     6.8039   -7.5262   -3.3081 C.3      1 ZINC000095520599   -0.0700
25     N25     5.1540   -5.7092   -3.4478 N.pl3    1 ZINC000095520599   -0.6500
26     C26     3.9582   -5.1505   -3.1631 C.2      1 ZINC000095520599    0.5200
27     O27     3.6663   -4.0484   -3.5922 O.2      1 ZINC000095520599   -0.6000
28     C28     2.6867   -4.5085    0.1158 C.3      1 ZINC000095520599    0.1200
29     C29     2.3401   -5.1111    1.4814 C.3      1 ZINC000095520599   -0.1300
30     H30     2.1440    0.4564   -1.3943 H        1 ZINC000095520599    0.0500
31     H31     0.5671    1.2562   -1.5998 H        1 ZINC000095520599    0.0900
32     H32     1.4881    1.4783   -0.0929 H        1 ZINC000095520599    0.0400
33     H33     2.2881   -1.4288    0.1585 H        1 ZINC000095520599    0.0900
34     H34     1.6322   -0.4069    1.4600 H        1 ZINC000095520599    0.0800
35     H35     2.8916   -2.9416    3.2499 H        1 ZINC000095520599    0.0800
36     H36     1.9490   -1.4345    3.1423 H        1 ZINC000095520599    0.0900
37     H37     1.8140   -2.7218    5.3793 H        1 ZINC000095520599    0.0900
38     H38     0.2628   -2.2656    4.6304 H        1 ZINC000095520599    0.0800
39     H39     0.1498   -7.0677    3.0795 H        1 ZINC000095520599    0.4200
40     H40    -0.1862   -7.1715    5.6164 H        1 ZINC000095520599    0.2100
41     H41    -0.1871   -5.9541    0.8995 H        1 ZINC000095520599    0.0600
42     H42    -1.0452   -4.4622    1.3549 H        1 ZINC000095520599    0.0900
43     H43    -0.5216   -4.5986   -1.1095 H        1 ZINC000095520599    0.0900
44     H44     0.2068   -3.1796   -0.3137 H        1 ZINC000095520599    0.1300
45     H45     2.7791   -7.7116   -1.2573 H        1 ZINC000095520599    0.1200
46     H46     6.7200   -8.1045   -4.2282 H        1 ZINC000095520599    0.0700
47     H47     7.5343   -6.7290   -3.4453 H        1 ZINC000095520599    0.0700
48     H48     7.1265   -8.1789   -2.4969 H        1 ZINC000095520599    0.0700
49     H49     3.5745   -4.9978   -0.2849 H        1 ZINC000095520599    0.0900
50     H50     2.8734   -3.4401    0.2245 H        1 ZINC000095520599    0.0600
51     H51     3.1287   -4.8725    2.1950 H        1 ZINC000095520599    0.0800
52     H52     2.2480   -6.1932    1.3887 H        1 ZINC000095520599    0.0800
@<TRIPOS>BOND
1     1     2     1
2     1     30    1
3     1     31    1
4     1     32    1
5     2     3     1
6     3     4     1
7     3     33    1
8     3     34    1
9     4     5     2
10    4     6     am
11    6     14    1
12    6     7     1
13    7     8     1
14    7     35    1
15    7     36    1
16    8     9     1
17    8     37    1
18    8     38    1
19    9     13    1
20    9     10    2
21    10    11    1
22    10    14    1
23    11    12    1
24    11    39    1
25    12    13    2
26    12    40    1
27    14    29    1
28    14    15    1
29    15    16    1
30    15    41    1
31    15    42    1
32    16    17    1
33    16    43    1
34    16    44    1
35    17    18    am
36    17    28    1
37    18    19    2
38    18    20    1
39    20    26    1
40    20    21    2
41    21    22    1
42    21    45    1
43    22    23    2
44    23    24    1
45    23    25    1
46    24    46    1
47    24    47    1
48    24    48    1
49    25    26    1
50    26    27    2
51    28    29    1
52    28    49    1
53    28    50    1
54    29    51    1
55    29    52    1
@<TRIPOS>SUBSTRUCTURE
1   ZINC000095520599 1     RESIDUE    1   A     ZIN   1

@<TRIPOS>MOLECULE
ZINC000095520599
52    55    1     0     0
SMALL
USER_CHARGES
@<TRIPOS>ATOM
1      C1     -1.3785    0.7532   -0.6235 C.3      1 ZINC000095520599    0.0300
2      O2     -0.5461   -0.3727   -0.3380 O.3      1 ZINC000095520599   -0.3700
3      C3     -0.0948   -1.0714   -1.5000 C.3      1 ZINC000095520599    0.0300
4      C4      0.7700   -2.2331   -1.0833 C.2      1 ZINC000095520599    0.5300
5      O5      0.9792   -2.4421    0.0929 O.2      1 ZINC000095520599   -0.4500
6      N6      1.3109   -3.0398   -2.0178 N.am     1 ZINC000095520599   -0.6400
7      C7      1.9195   -2.4811   -3.2349 C.3      1 ZINC000095520599    0.1200
8      C8      3.4176   -2.8110   -3.2446 C.3      1 ZINC000095520599   -0.0600
9      C9      3.6022   -4.2550   -2.8584 C.2      1 ZINC000095520599   -0.0200
10     C10     2.6731   -5.0104   -2.2324 C.2      1 ZINC000095520599    0.0100
11     N11     3.1859   -6.2287   -2.0470 N.2      1 ZINC000095520599   -0.4700
12     C12     4.3977   -6.2625   -2.5370 C.2      1 ZINC000095520599    0.1800
13     N13     4.6922   -5.0476   -3.0543 N.pl3    1 ZINC000095520599   -0.5600
14     C14     1.3126   -4.5008   -1.8428 C.3      1 ZINC000095520599    0.2800
15     C15     1.0243   -4.8479   -0.3837 C.3      1 ZINC000095520599   -0.1100
16     C16    -0.3420   -4.2792    0.0136 C.3      1 ZINC000095520599    0.0500
17     N17    -1.3504   -4.7626   -0.9394 N.am     1 ZINC000095520599   -0.6100
18     C18    -2.4612   -5.3896   -0.5040 C.2      1 ZINC000095520599    0.6100
19     O19    -2.6860   -5.4705    0.6888 O.2      1 ZINC000095520599   -0.5500
20     C20    -3.4019   -5.9760   -1.4712 C.2      1 ZINC000095520599   -0.4000
21     C21    -3.1628   -7.2257   -2.0336 C.2      1 ZINC000095520599    0.1900
22     N22    -4.0320   -7.7294   -2.9053 N.2      1 ZINC000095520599   -0.6300
23     C23    -5.1134   -7.0790   -3.2520 C.2      1 ZINC000095520599    0.3500
24     C24    -6.0564   -7.7076   -4.2452 C.3      1 ZINC000095520599   -0.0700
25     N25    -5.4097   -5.8673   -2.7491 N.pl3    1 ZINC000095520599   -0.6500
26     C26    -4.5853   -5.2832   -1.8535 C.2      1 ZINC000095520599    0.5200
27     O27    -4.8430   -4.1860   -1.3910 O.2      1 ZINC000095520599   -0.6100
28     C28    -1.1259   -4.5496   -2.3757 C.3      1 ZINC000095520599    0.1200
29     C29     0.2479   -5.1168   -2.7486 C.3      1 ZINC000095520599   -0.1300
30     H30    -0.8264    1.4676   -1.2342 H        1 ZINC000095520599    0.0400
31     H31    -2.2651    0.4218   -1.1641 H        1 ZINC000095520599    0.0500
32     H32    -1.6789    1.2290    0.3100 H        1 ZINC000095520599    0.0900
33     H33    -0.9548   -1.4407   -2.0588 H        1 ZINC000095520599    0.0900
34     H34     0.4839   -0.3949   -2.1289 H        1 ZINC000095520599    0.0800
35     H35     1.4445   -2.9178   -4.1133 H        1 ZINC000095520599    0.0800
36     H36     1.7846   -1.3995   -3.2462 H        1 ZINC000095520599    0.0900
37     H37     3.8212   -2.6460   -4.2436 H        1 ZINC000095520599    0.0900
38     H38     3.9365   -2.1728   -2.5295 H        1 ZINC000095520599    0.0800
39     H39     5.0555   -7.1191   -2.5294 H        1 ZINC000095520599    0.2100
40     H40     5.5230   -4.7896   -3.4834 H        1 ZINC000095520599    0.4200
41     H41     1.0166   -5.9310   -0.2623 H        1 ZINC000095520599    0.0800
42     H42     1.7969   -4.4158    0.2523 H        1 ZINC000095520599    0.0800
43     H43    -0.5989   -4.6139    1.0186 H        1 ZINC000095520599    0.0800
44     H44    -0.3064   -3.1901   -0.0132 H        1 ZINC000095520599    0.1300
45     H45    -2.2776   -7.7828   -1.7646 H        1 ZINC000095520599    0.1300
46     H46    -6.7983   -8.3042   -3.7145 H        1 ZINC000095520599    0.0700
47     H47    -6.5588   -6.9255   -4.8145 H        1 ZINC000095520599    0.0700
48     H48    -5.4942   -8.3477   -4.9251 H        1 ZINC000095520599    0.0700
49     H49    -1.9002   -5.0621   -2.9467 H        1 ZINC000095520599    0.0900
50     H50    -1.1527   -3.4824   -2.5955 H        1 ZINC000095520599    0.0500
51     H51     0.4709   -4.8759   -3.7880 H        1 ZINC000095520599    0.0700
52     H52     0.2420   -6.1991   -2.6190 H        1 ZINC000095520599    0.0900
@<TRIPOS>BOND
1     1     2     1
2     1     30    1
3     1     31    1
4     1     32    1
5     2     3     1
6     3     4     1
7     3     33    1
8     3     34    1
9     4     5     2
10    4     6     am
11    6     14    1
12    6     7     1
13    7     8     1
14    7     35    1
15    7     36    1
16    8     9     1
17    8     37    1
18    8     38    1
19    9     13    1
20    9     10    2
21    10    11    1
22    10    14    1
23    11    12    2
24    12    13    1
25    12    39    1
26    13    40    1
27    14    29    1
28    14    15    1
29    15    16    1
30    15    41    1
31    15    42    1
32    16    17    1
33    16    43    1
34    16    44    1
35    17    18    am
36    17    28    1
37    18    19    2
38    18    20    1
39    20    26    1
40    20    21    2
41    21    22    1
42    21    45    1
43    22    23    2
44    23    24    1
45    23    25    1
46    24    46    1
47    24    47    1
48    24    48    1
49    25    26    1
50    26    27    2
51    28    29    1
52    28    49    1
53    28    50    1
54    29    51    1
55    29    52    1
@<TRIPOS>SUBSTRUCTURE
1   ZINC000095520599 1     RESIDUE    1   A     ZIN   1
@<TRIPOS>MOLECULE
ZINC000096097830
40    43    1     0     0
SMALL
USER_CHARGES
@<TRIPOS>ATOM
1      O1      2.0109    3.6127   -1.1165 O.2      1 ZINC000096097830   -0.4900
2      C2      1.0427    3.1145   -0.5763 C.2      1 ZINC000096097830    0.5800
3      N3      1.1435    1.9010    0.0013 N.am     1 ZINC000096097830   -0.6500
4      C4      2.3327    1.1730   -0.1042 C.ar     1 ZINC000096097830    0.1700
5      C5      2.2942   -0.2111   -0.2127 C.ar     1 ZINC000096097830   -0.1600
6      C6      3.4705   -0.9271   -0.3173 C.ar     1 ZINC000096097830    0.0000
7      C7      4.6859   -0.2674   -0.3139 C.ar     1 ZINC000096097830   -0.6300
8      S8      6.1843   -1.1847   -0.4475 S.o2     1 ZINC000096097830    2.6400
9      O9      7.2030   -0.3742    0.1224 O.2      1 ZINC000096097830   -1.0100
10     O10     5.8920   -2.4991    0.0063 O.2      1 ZINC000096097830   -1.0100
11     N11     6.5375   -1.3145   -2.0602 N.pl3    1 ZINC000096097830   -1.0500
12     C12     7.6747   -1.9939   -2.4681 C.2      1 ZINC000096097830    0.3900
13     N13     8.5231   -2.5674   -1.6723 N.2      1 ZINC000096097830   -0.6300
14     C14     9.5543   -3.1723   -2.2346 C.2      1 ZINC000096097830    0.1000
15     C15     9.5775   -3.1065   -3.5660 C.2      1 ZINC000096097830   -0.3600
16     S16     8.1596   -2.2042   -4.0940 S.3      1 ZINC000096097830    0.0300
17     C17     4.7277    1.1106   -0.2065 C.ar     1 ZINC000096097830    0.0000
18     C18     3.5549    1.8330   -0.1064 C.ar     1 ZINC000096097830   -0.1400
19     C19    -0.2447    3.8429   -0.5474 C.ar     1 ZINC000096097830    0.0200
20     C20    -0.3521    5.1027   -1.1462 C.ar     1 ZINC000096097830   -0.0300
21     C21    -1.5783    5.7451   -1.0929 C.ar     1 ZINC000096097830   -0.1100
22     C22    -2.6291    5.0978   -0.4468 C.ar     1 ZINC000096097830    0.3300
23     N23    -3.8824    5.7069   -0.3690 N.pl3    1 ZINC000096097830   -0.3400
24     C24    -4.9875    5.2107    0.2242 C.2      1 ZINC000096097830    0.3000
25     N25    -5.9509    6.0832    0.0786 N.2      1 ZINC000096097830   -0.5300
26     C26    -5.5044    7.1422   -0.5971 C.2      1 ZINC000096097830    0.2300
27     N27    -4.2430    6.9613   -0.8876 N.2      1 ZINC000096097830   -0.3100
28     N28    -2.4374    3.9012    0.0945 N.ar     1 ZINC000096097830   -0.2500
29     N29    -1.3042    3.3007    0.0423 N.ar     1 ZINC000096097830   -0.1700
30     H30     0.3911    1.5326    0.4903 H        1 ZINC000096097830    0.4200
31     H31     1.3453   -0.7270   -0.2150 H        1 ZINC000096097830    0.1300
32     H32     3.4412   -2.0034   -0.4013 H        1 ZINC000096097830    0.1400
33     H33    10.3171   -3.6790   -1.6619 H        1 ZINC000096097830    0.1500
34     H34    10.3320   -3.5351   -4.2090 H        1 ZINC000096097830    0.1500
35     H35     5.6786    1.6229   -0.2042 H        1 ZINC000096097830    0.1400
36     H36     3.5883    2.9092   -0.0229 H        1 ZINC000096097830    0.1400
37     H37     0.4953    5.5606   -1.6348 H        1 ZINC000096097830    0.1800
38     H38    -1.7155    6.7191   -1.5389 H        1 ZINC000096097830    0.1700
39     H39    -5.0636    4.2596    0.7301 H        1 ZINC000096097830    0.2300
40     H40    -6.0895    8.0115   -0.8583 H        1 ZINC000096097830    0.2300
@<TRIPOS>BOND
1     1     2     2
2     2     3     am
3     2     19    1
4     3     4     1
5     3     30    1
6     4     18    ar
7     4     5     ar
8     5     6     ar
9     5     31    1
10    6     7     ar
11    6     32    1
12    7     8     1
13    7     17    ar
14    8     9     2
15    8     10    2
16    8     11    1
17    11    12    1
18    12    16    1
19    12    13    2
20    13    14    1
21    14    15    2
22    14    33    1
23    15    16    1
24    15    34    1
25    17    18    ar
26    17    35    1
27    18    36    1
28    19    29    ar
29    19    20    ar
30    20    21    ar
31    20    37    1
32    21    22    ar
33    21    38    1
34    22    23    1
35    22    28    ar
36    23    27    1
37    23    24    1
38    24    25    2
39    24    39    1
40    25    26    1
41    26    27    2
42    26    40    1
43    28    29    ar
@<TRIPOS>SUBSTRUCTURE
1   ZINC000096097830 1     RESIDUE    1   A     ZIN   1

@<TRIPOS>MOLECULE
ZINC000096097830
41    44    1     0     0
SMALL
USER_CHARGES
@<TRIPOS>ATOM
1      O1      2.0109    3.6127   -1.1165 O.2      1 ZINC000096097830   -0.4900
2      C2      1.0427    3.1145   -0.5763 C.2      1 ZINC000096097830    0.5900
3      N3      1.1435    1.9010    0.0013 N.am     1 ZINC000096097830   -0.6600
4      C4      2.3327    1.1730   -0.1042 C.ar     1 ZINC000096097830    0.2000
5      C5      2.2942   -0.2111   -0.2127 C.ar     1 ZINC000096097830   -0.1600
6      C6      3.4705   -0.9271   -0.3173 C.ar     1 ZINC000096097830    0.0000
7      C7      4.6859   -0.2674   -0.3139 C.ar     1 ZINC000096097830   -0.6900
8      S8      6.1843   -1.1847   -0.4475 S.o2     1 ZINC000096097830    2.6900
9      O9      7.2030   -0.3742    0.1224 O.2      1 ZINC000096097830   -0.9200
10     O10     5.8920   -2.4991    0.0063 O.2      1 ZINC000096097830   -0.9400
11     N11     6.5375   -1.3145   -2.0602 N.am     1 ZINC000096097830   -1.0100
12     C12     6.8378   -0.1798   -2.7975 C.2      1 ZINC000096097830    0.2800
13     N13     6.8754    1.0264   -2.3225 N.2      1 ZINC000096097830   -0.5100
14     C14     7.1808    1.9927   -3.1702 C.2      1 ZINC000096097830    0.0800
15     C15     7.4115    1.5834   -4.4179 C.2      1 ZINC000096097830   -0.2700
16     S16     7.2198   -0.1672   -4.4639 S.3      1 ZINC000096097830    0.1500
17     C17     4.7277    1.1106   -0.2065 C.ar     1 ZINC000096097830    0.0300
18     C18     3.5549    1.8330   -0.1064 C.ar     1 ZINC000096097830   -0.1500
19     C19    -0.2447    3.8429   -0.5474 C.ar     1 ZINC000096097830    0.0100
20     C20    -0.3521    5.1027   -1.1462 C.ar     1 ZINC000096097830   -0.0300
21     C21    -1.5783    5.7451   -1.0929 C.ar     1 ZINC000096097830   -0.1100
22     C22    -2.6291    5.0978   -0.4468 C.ar     1 ZINC000096097830    0.3400
23     N23    -3.8824    5.7069   -0.3690 N.pl3    1 ZINC000096097830   -0.3400
24     C24    -4.9875    5.2107    0.2242 C.2      1 ZINC000096097830    0.3000
25     N25    -5.9509    6.0832    0.0786 N.2      1 ZINC000096097830   -0.5300
26     C26    -5.5044    7.1422   -0.5971 C.2      1 ZINC000096097830    0.2300
27     N27    -4.2430    6.9613   -0.8876 N.2      1 ZINC000096097830   -0.3100
28     N28    -2.4374    3.9012    0.0945 N.ar     1 ZINC000096097830   -0.2500
29     N29    -1.3042    3.3007    0.0423 N.ar     1 ZINC000096097830   -0.1700
30     H30     0.3911    1.5326    0.4903 H        1 ZINC000096097830    0.4300
31     H31     1.3453   -0.7270   -0.2150 H        1 ZINC000096097830    0.1400
32     H32     3.4412   -2.0034   -0.4013 H        1 ZINC000096097830    0.1500
33     H33     6.5342   -2.1846   -2.4889 H        1 ZINC000096097830    0.4400
34     H34     7.2385    3.0303   -2.8763 H        1 ZINC000096097830    0.1900
35     H35     7.6743    2.2146   -5.2539 H        1 ZINC000096097830    0.1800
36     H36     5.6786    1.6229   -0.2042 H        1 ZINC000096097830    0.1600
37     H37     3.5883    2.9092   -0.0229 H        1 ZINC000096097830    0.1500
38     H38     0.4953    5.5606   -1.6348 H        1 ZINC000096097830    0.1800
39     H39    -1.7155    6.7191   -1.5389 H        1 ZINC000096097830    0.1800
40     H40    -5.0636    4.2596    0.7301 H        1 ZINC000096097830    0.2300
41     H41    -6.0895    8.0115   -0.8583 H        1 ZINC000096097830    0.2300
@<TRIPOS>BOND
1     1     2     2
2     2     3     am
3     2     19    1
4     3     4     1
5     3     30    1
6     4     18    ar
7     4     5     ar
8     5     6     ar
9     5     31    1
10    6     7     ar
11    6     32    1
12    7     8     1
13    7     17    ar
14    8     9     2
15    8     10    2
16    8     11    am
17    11    12    1
18    11    33    1
19    12    16    1
20    12    13    2
21    13    14    1
22    14    15    2
23    14    34    1
24    15    16    1
25    15    35    1
26    17    18    ar
27    17    36    1
28    18    37    1
29    19    29    ar
30    19    20    ar
31    20    21    ar
32    20    38    1
33    21    22    ar
34    21    39    1
35    22    23    1
36    22    28    ar
37    23    27    1
38    23    24    1
39    24    25    2
40    24    40    1
41    25    26    1
42    26    27    2
43    26    41    1
44    28    29    ar
@<TRIPOS>SUBSTRUCTURE
1   ZINC000096097830 1     RESIDUE    1   A     ZIN   1
@<TRIPOS>MOLECULE
ZINC000064941722
43    46    1     0     0
SMALL
USER_CHARGES
@<TRIPOS>ATOM
1      O1      0.0029   -0.0045   -0.0012 O.2      1 ZINC000064941722   -0.5000
2      C2     -0.0142    1.2116    0.0018 C.2      1 ZINC000064941722    0.6100
3      N3      1.1435    1.9018    0.0014 N.am     1 ZINC000064941722   -0.6500
4      C4      2.3634    1.2220    0.0917 C.ar     1 ZINC000064941722    0.1100
5      C5      2.5131   -0.0210   -0.5073 C.ar     1 ZINC000064941722   -0.0900
6      C6      3.7188   -0.6899   -0.4164 C.ar     1 ZINC000064941722   -0.1100
7      C7      4.7764   -0.1231    0.2702 C.ar     1 ZINC000064941722   -0.1000
8      C8      4.6324    1.1154    0.8689 C.ar     1 ZINC000064941722   -0.1400
9      C9      3.4307    1.7931    0.7773 C.ar     1 ZINC000064941722    0.0800
10     F10     3.2900    3.0030    1.3616 F        1 ZINC000064941722   -0.1300
11     C11    -1.2998    1.9301   -0.0000 C.2      1 ZINC000064941722   -0.0700
12     N12    -1.4589    3.2281   -0.0029 N.2      1 ZINC000064941722   -0.2000
13     N13    -2.6509    3.6444   -0.0041 N.2      1 ZINC000064941722   -0.2500
14     C14    -3.6012    2.7595   -0.0024 C.2      1 ZINC000064941722   -0.0200
15     C15    -5.0780    3.0600   -0.0039 C.3      1 ZINC000064941722    0.2400
16     H16    -5.6393    2.1610    0.2508 H        1 ZINC000064941722    0.1100
17     C17    -5.5082    3.5709   -1.3951 C.3      1 ZINC000064941722   -0.1200
18     C18    -6.5415    4.6772   -1.0548 C.3      1 ZINC000064941722   -0.1300
19     C19    -5.9374    5.2798    0.2381 C.3      1 ZINC000064941722    0.1200
20     N20    -5.3726    4.1249    0.9660 N.am     1 ZINC000064941722   -0.9900
21     S21    -5.1136    4.0466    2.5998 S.o2     1 ZINC000064941722    2.7400
22     O22    -4.1023    3.0684    2.7993 O.2      1 ZINC000064941722   -0.9300
23     O23    -4.9970    5.3885    3.0523 O.2      1 ZINC000064941722   -0.9400
24     C24    -6.5814    3.4010    3.3302 C.2      1 ZINC000064941722   -0.5700
25     C25    -7.6329    4.1221    3.7636 C.2      1 ZINC000064941722    0.0700
26     N26    -8.5484    3.2312    4.2553 N.pl3    1 ZINC000064941722   -0.5600
27     C27    -8.0241    1.9958    4.1051 C.2      1 ZINC000064941722    0.1900
28     N28    -6.8497    2.1048    3.5466 N.2      1 ZINC000064941722   -0.4200
29     S29    -2.9034    1.1954   -0.0066 S.3      1 ZINC000064941722    0.2800
30     H30     1.1311    2.8696   -0.0616 H        1 ZINC000064941722    0.4300
31     H31     1.6878   -0.4653   -1.0438 H        1 ZINC000064941722    0.1500
32     H32     3.8351   -1.6573   -0.8823 H        1 ZINC000064941722    0.1400
33     H33     5.7173   -0.6488    0.3396 H        1 ZINC000064941722    0.1400
34     H34     5.4604    1.5552    1.4049 H        1 ZINC000064941722    0.1400
35     H35    -4.6573    3.9900   -1.9321 H        1 ZINC000064941722    0.0900
36     H36    -5.9743    2.7722   -1.9721 H        1 ZINC000064941722    0.0900
37     H37    -6.5905    5.4233   -1.8478 H        1 ZINC000064941722    0.0900
38     H38    -7.5249    4.2477   -0.8632 H        1 ZINC000064941722    0.0800
39     H39    -5.1528    5.9955   -0.0076 H        1 ZINC000064941722    0.0800
40     H40    -6.7154    5.7580    0.8333 H        1 ZINC000064941722    0.0800
41     H41    -7.7342    5.1968    3.7300 H        1 ZINC000064941722    0.2000
42     H42    -9.4124    3.4470    4.6398 H        1 ZINC000064941722    0.4300
43     H43    -8.4997    1.0706    4.3954 H        1 ZINC000064941722    0.2200
@<TRIPOS>BOND
1     1     2     2
2     2     3     am
3     2     11    1
4     3     4     1
5     3     30    1
6     4     9     ar
7     4     5     ar
8     5     6     ar
9     5     31    1
10    6     7     ar
11    6     32    1
12    7     8     ar
13    7     33    1
14    8     9     ar
15    8     34    1
16    9     10    1
17    11    29    1
18    11    12    2
19    12    13    1
20    13    14    2
21    14    15    1
22    14    29    1
23    15    16    1
24    15    20    1
25    15    17    1
26    17    18    1
27    17    35    1
28    17    36    1
29    18    19    1
30    18    37    1
31    18    38    1
32    19    20    1
33    19    39    1
34    19    40    1
35    20    21    am
36    21    22    2
37    21    23    2
38    21    24    1
39    24    28    1
40    24    25    2
41    25    26    1
42    25    41    1
43    26    27    1
44    26    42    1
45    27    28    2
46    27    43    1
@<TRIPOS>SUBSTRUCTURE
1   ZINC000064941722 1     RESIDUE    1   A     ZIN   1

@<TRIPOS>MOLECULE
ZINC000064941722
42    45    1     0     0
SMALL
USER_CHARGES
@<TRIPOS>ATOM
1      O1     -0.0406    0.0246    0.0978 O.2      1 ZINC000064941722   -0.6200
2      C2     -0.0019    1.2114   -0.1657 C.2      1 ZINC000064941722    0.5200
3      N3      1.1435    1.9018    0.0014 N.pl3    1 ZINC000064941722   -0.6800
4      C4      2.3634    1.2220    0.0917 C.ar     1 ZINC000064941722    0.1800
5      C5      2.5149   -0.0185   -0.5121 C.ar     1 ZINC000064941722   -0.1700
6      C6      3.7206   -0.6873   -0.4212 C.ar     1 ZINC000064941722   -0.1100
7      C7      4.7764   -0.1231    0.2702 C.ar     1 ZINC000064941722   -0.1800
8      C8      4.6306    1.1129    0.8737 C.ar     1 ZINC000064941722   -0.1300
9      C9      3.4290    1.7906    0.7821 C.ar     1 ZINC000064941722    0.0400
10     F10     3.2865    2.9980    1.3712 F        1 ZINC000064941722   -0.1500
11     C11    -1.2050    1.8926   -0.6730 C.2      1 ZINC000064941722    0.0400
12     N12    -1.2977    3.1558   -0.9985 N.2      1 ZINC000064941722   -0.2100
13     N13    -2.4248    3.5439   -1.4146 N.2      1 ZINC000064941722   -0.2600
14     C14    -3.3800    2.6669   -1.4821 C.2      1 ZINC000064941722   -0.0600
15     C15    -4.7863    2.9376   -1.9512 C.3      1 ZINC000064941722    0.2500
16     H16    -5.4362    2.1082   -1.6722 H        1 ZINC000064941722    0.1000
17     C17    -4.8018    3.1241   -3.4831 C.3      1 ZINC000064941722   -0.1200
18     C18    -5.8366    4.2626   -3.6841 C.3      1 ZINC000064941722   -0.1300
19     C19    -5.5762    5.1434   -2.4367 C.3      1 ZINC000064941722    0.1200
20     N20    -5.2822    4.1849   -1.3514 N.am     1 ZINC000064941722   -0.9900
21     S21    -5.4770    4.4711    0.2680 S.o2     1 ZINC000064941722    2.7300
22     O22    -4.6030    3.5758    0.9417 O.2      1 ZINC000064941722   -0.9200
23     O23    -5.4251    5.8813    0.4354 O.2      1 ZINC000064941722   -0.9500
24     C24    -7.1153    3.9798    0.6911 C.2      1 ZINC000064941722   -0.5600
25     C25    -8.2105    4.7627    0.6552 C.2      1 ZINC000064941722    0.0700
26     N26    -9.2645    3.9880    1.0581 N.pl3    1 ZINC000064941722   -0.5600
27     C27    -8.7765    2.7577    1.3263 C.2      1 ZINC000064941722    0.1900
28     N28    -7.4913    2.7589    1.0998 N.2      1 ZINC000064941722   -0.4100
29     S29    -2.7795    1.1506   -0.9588 S.3      1 ZINC000064941722    0.1700
30     H30     1.6910   -0.4608   -1.0524 H        1 ZINC000064941722    0.1200
31     H31     3.8383   -1.6527   -0.8908 H        1 ZINC000064941722    0.1100
32     H32     5.7173   -0.6488    0.3396 H        1 ZINC000064941722    0.1100
33     H33     5.4573    1.5507    1.4134 H        1 ZINC000064941722    0.1200
34     H34    -3.8193    3.4277   -3.8445 H        1 ZINC000064941722    0.0900
35     H35    -5.1313    2.2113   -3.9794 H        1 ZINC000064941722    0.0900
36     H36    -5.6357    4.8156   -4.6017 H        1 ZINC000064941722    0.0900
37     H37    -6.8538    3.8710   -3.6806 H        1 ZINC000064941722    0.0800
38     H38    -4.7225    5.7992   -2.6069 H        1 ZINC000064941722    0.0800
39     H39    -6.4630    5.7288   -2.1939 H        1 ZINC000064941722    0.0800
40     H40    -8.2495    5.8022    0.3648 H        1 ZINC000064941722    0.2000
41     H41   -10.1893    4.2699    1.1363 H        1 ZINC000064941722    0.4300
42     H42    -9.3547    1.9118    1.6677 H        1 ZINC000064941722    0.2200
@<TRIPOS>BOND
1     1     2     2
2     2     3     1
3     2     11    1
4     3     4     1
5     4     9     ar
6     4     5     ar
7     5     6     ar
8     5     30    1
9     6     7     ar
10    6     31    1
11    7     8     ar
12    7     32    1
13    8     9     ar
14    8     33    1
15    9     10    1
16    11    29    1
17    11    12    2
18    12    13    1
19    13    14    2
20    14    15    1
21    14    29    1
22    15    16    1
23    15    20    1
24    15    17    1
25    17    18    1
26    17    34    1
27    17    35    1
28    18    19    1
29    18    36    1
30    18    37    1
31    19    20    1
32    19    38    1
33    19    39    1
34    20    21    am
35    21    22    2
36    21    23    2
37    21    24    1
38    24    28    1
39    24    25    2
40    25    26    1
41    25    40    1
42    26    27    1
43    26    41    1
44    27    28    2
45    27    42    1
@<TRIPOS>SUBSTRUCTURE
1   ZINC000064941722 1     RESIDUE    1   A     ZIN   1
@<TRIPOS>MOLECULE
ZINC000065212385
52    54    1     0     0
SMALL
USER_CHARGES
@<TRIPOS>ATOM
1      C1     -0.0187    1.5258    0.0104 C.3      1 ZINC000065212385   -0.1500
2      C2      0.0021   -0.0041    0.0020 C.3      1 ZINC000065212385   -0.6300
3      S3     -1.6997   -0.6320    0.0149 S.o2     1 ZINC000065212385    2.6000
4      O4     -2.3254   -0.3511    1.2594 O.2      1 ZINC000065212385   -0.9400
5      O5     -2.3491   -0.3378   -1.2144 O.2      1 ZINC000065212385   -0.9400
6      N6     -1.5324   -2.2794    0.0044 N.am     1 ZINC000065212385   -1.0300
7      C7     -0.9413   -2.9302    1.0945 C.2      1 ZINC000065212385    0.0600
8      C8     -0.5044   -2.2136    2.1745 C.2      1 ZINC000065212385   -0.1000
9      C9      0.0836   -2.8902    3.2533 C.2      1 ZINC000065212385   -0.1800
10     C10     0.2136   -4.2356    3.2187 C.2      1 ZINC000065212385    0.1400
11     C11     0.8470   -4.9522    4.3834 C.3      1 ZINC000065212385   -0.1200
12     N12    -0.2205   -4.9504    2.1459 N.am     1 ZINC000065212385   -0.4700
13     C13    -0.0669   -6.4073    2.1365 C.3      1 ZINC000065212385    0.0700
14     C14    -1.2905   -7.0453    2.7420 C.2      1 ZINC000065212385    0.5100
15     O15    -2.2012   -6.3514    3.1421 O.2      1 ZINC000065212385   -0.5200
16     N16    -1.3728   -8.3871    2.8390 N.am     1 ZINC000065212385   -0.6100
17     C17    -0.2752   -9.2407    2.3643 C.3      1 ZINC000065212385    0.1100
18     C18    -0.8408  -10.2690    1.3795 C.3      1 ZINC000065212385   -0.1400
19     C19    -1.9902  -11.0286    2.0448 C.3      1 ZINC000065212385    0.2600
20     C20    -3.1062  -10.0545    2.4269 C.3      1 ZINC000065212385   -0.1500
21     C21    -2.5592   -9.0239    3.4269 C.3      1 ZINC000065212385    0.1200
22     O22    -2.5018  -12.0149    1.1394 O.3      1 ZINC000065212385   -0.3800
23     C23    -2.3458  -13.3003    1.7740 C.3      1 ZINC000065212385    0.0200
24     C24    -2.2364  -12.9384    3.2764 C.3      1 ZINC000065212385    0.0200
25     O25    -1.5066  -11.6888    3.2258 O.3      1 ZINC000065212385   -0.3700
26     C26    -0.7944   -4.3348    1.0946 C.2      1 ZINC000065212385    0.5300
27     O27    -1.1795   -4.9894    0.1389 O.2      1 ZINC000065212385   -0.5400
28     H28     1.0039    1.9031    0.0027 H        1 ZINC000065212385    0.0900
29     H29    -0.5459    1.8868   -0.8726 H        1 ZINC000065212385    0.0700
30     H30    -0.5289    1.8773    0.9072 H        1 ZINC000065212385    0.0800
31     H31     0.5123   -0.3556   -0.8948 H        1 ZINC000065212385    0.1400
32     H32     0.5293   -0.3651    0.8851 H        1 ZINC000065212385    0.1400
33     H33    -1.8439   -2.7938   -0.7567 H        1 ZINC000065212385    0.4300
34     H34    -0.6107   -1.1391    2.1962 H        1 ZINC000065212385    0.1400
35     H35     0.4331   -2.3361    4.1119 H        1 ZINC000065212385    0.1600
36     H36     1.1313   -4.2265    5.1454 H        1 ZINC000065212385    0.1000
37     H37     0.1344   -5.6612    4.8047 H        1 ZINC000065212385    0.0800
38     H38     1.7334   -5.4871    4.0424 H        1 ZINC000065212385    0.0800
39     H39     0.0530   -6.7533    1.1098 H        1 ZINC000065212385    0.1300
40     H40     0.8126   -6.6837    2.7181 H        1 ZINC000065212385    0.1300
41     H41     0.4737   -8.6278    1.8627 H        1 ZINC000065212385    0.0900
42     H42     0.1788   -9.7564    3.2105 H        1 ZINC000065212385    0.0900
43     H43    -1.2095   -9.7569    0.4908 H        1 ZINC000065212385    0.0900
44     H44    -0.0566  -10.9711    1.0963 H        1 ZINC000065212385    0.0900
45     H45    -3.4647   -9.5435    1.5333 H        1 ZINC000065212385    0.0900
46     H46    -3.9277  -10.6045    2.8861 H        1 ZINC000065212385    0.0800
47     H47    -2.2894   -9.5245    4.3568 H        1 ZINC000065212385    0.0800
48     H48    -3.3186   -8.2672    3.6240 H        1 ZINC000065212385    0.1000
49     H49    -3.2178  -13.9284    1.5916 H        1 ZINC000065212385    0.1000
50     H50    -1.4364  -13.7924    1.4291 H        1 ZINC000065212385    0.0800
51     H51    -3.2234  -12.7963    3.7164 H        1 ZINC000065212385    0.0800
52     H52    -1.6738  -13.6971    3.8205 H        1 ZINC000065212385    0.1100
@<TRIPOS>BOND
1     1     2     1
2     1     28    1
3     1     29    1
4     1     30    1
5     2     3     1
6     2     31    1
7     2     32    1
8     3     4     2
9     3     5     2
10    3     6     am
11    6     7     1
12    6     33    1
13    7     26    1
14    7     8     2
15    8     9     1
16    8     34    1
17    9     10    2
18    9     35    1
19    10    11    1
20    10    12    1
21    11    36    1
22    11    37    1
23    11    38    1
24    12    13    1
25    12    26    am
26    13    14    1
27    13    39    1
28    13    40    1
29    14    15    2
30    14    16    am
31    16    21    1
32    16    17    1
33    17    18    1
34    17    41    1
35    17    42    1
36    18    19    1
37    18    43    1
38    18    44    1
39    19    25    1
40    19    20    1
41    19    22    1
42    20    21    1
43    20    45    1
44    20    46    1
45    21    47    1
46    21    48    1
47    22    23    1
48    23    24    1
49    23    49    1
50    23    50    1
51    24    25    1
52    24    51    1
53    24    52    1
54    26    27    2
@<TRIPOS>SUBSTRUCTURE
1   ZINC000065212385 1     RESIDUE    1   A     ZIN   1
@<TRIPOS>MOLECULE
ZINC000005576385
40    41    1     0     0
SMALL
USER_CHARGES
@<TRIPOS>ATOM
1      C1      0.0038   -0.7006   -1.2657 C.3      1 ZINC000005576385    0.0800
2      N2      0.2286   -0.0199    0.0119 N.am     1 ZINC000005576385   -0.6100
3      C3      0.1134   -0.7022    1.1685 C.2      1 ZINC000005576385    0.5200
4      O4     -0.0810   -1.8992    1.1496 O.2      1 ZINC000005576385   -0.4800
5      C5      0.2260    0.0222    2.4852 C.3      1 ZINC000005576385   -0.0900
6      H6      1.1583    0.5863    2.5109 H        1 ZINC000005576385    0.0900
7      C7     -0.9553    0.9817    2.6420 C.3      1 ZINC000005576385   -0.1200
8      C8     -2.2639    0.1898    2.6060 C.3      1 ZINC000005576385   -0.1200
9      C9     -2.2768   -0.8263    3.7498 C.3      1 ZINC000005576385   -0.1200
10     C10    -1.0955   -1.7858    3.5929 C.3      1 ZINC000005576385   -0.1100
11     C11     0.2131   -0.9939    3.6290 C.3      1 ZINC000005576385   -0.1400
12     H12     0.2946   -0.4700    4.5813 H        1 ZINC000005576385    0.0600
13     C13     1.3766   -1.9391    3.4745 C.2      1 ZINC000005576385    0.5000
14     O14     1.1777   -3.1352    3.3473 O.co2    1 ZINC000005576385   -0.6800
15     O15     2.5170   -1.5076    3.4766 O.co2    1 ZINC000005576385   -0.7100
16     C16     0.5787    1.4025    0.0324 C.3      1 ZINC000005576385    0.1400
17     H17     0.6179    1.7623    1.0606 H        1 ZINC000005576385    0.1200
18     C18    -0.4556    2.2115   -0.7698 C.3      1 ZINC000005576385   -0.1300
19     C19     0.1077    3.6246   -1.0196 C.3      1 ZINC000005576385   -0.5900
20     S20     1.9252    3.4178   -1.0287 S.o2     1 ZINC000005576385    2.3900
21     O21     2.4173    3.6353   -2.3439 O.2      1 ZINC000005576385   -0.9400
22     O22     2.4859    4.1325    0.0640 O.2      1 ZINC000005576385   -0.9300
23     C23     1.9487    1.6222   -0.6596 C.3      1 ZINC000005576385   -0.6100
24     H24    -1.0627   -0.7082   -1.4906 H        1 ZINC000005576385    0.0500
25     H25     0.5382   -0.1744   -2.0567 H        1 ZINC000005576385    0.0700
26     H26     0.3687   -1.7256   -1.2004 H        1 ZINC000005576385    0.0800
27     H27    -0.8738    1.5057    3.5944 H        1 ZINC000005576385    0.0700
28     H28    -0.9461    1.7056    1.8272 H        1 ZINC000005576385    0.0600
29     H29    -3.1055    0.8734    2.7177 H        1 ZINC000005576385    0.0600
30     H30    -2.3454   -0.3341    1.6536 H        1 ZINC000005576385    0.0600
31     H31    -2.1954   -0.3023    4.7021 H        1 ZINC000005576385    0.0500
32     H32    -3.2091   -1.3904    3.7241 H        1 ZINC000005576385    0.0500
33     H33    -1.1047   -2.5097    4.4078 H        1 ZINC000005576385    0.0500
34     H34    -1.1770   -2.3098    2.6405 H        1 ZINC000005576385    0.0900
35     H35    -0.6462    1.7191   -1.7234 H        1 ZINC000005576385    0.0900
36     H36    -1.3846    2.2820   -0.2039 H        1 ZINC000005576385    0.1000
37     H37    -0.2349    4.0039   -1.9823 H        1 ZINC000005576385    0.1400
38     H38    -0.1925    4.2989   -0.2176 H        1 ZINC000005576385    0.1400
39     H39     2.7682    1.3768    0.0158 H        1 ZINC000005576385    0.1500
40     H40     2.0152    1.0393   -1.5782 H        1 ZINC000005576385    0.1400
@<TRIPOS>BOND
1     1     2     1
2     1     24    1
3     1     25    1
4     1     26    1
5     2     3     am
6     2     16    1
7     3     4     2
8     3     5     1
9     5     6     1
10    5     11    1
11    5     7     1
12    7     8     1
13    7     27    1
14    7     28    1
15    8     9     1
16    8     29    1
17    8     30    1
18    9     10    1
19    9     31    1
20    9     32    1
21    10    11    1
22    10    33    1
23    10    34    1
24    11    12    1
25    11    13    1
26    13    14    ar
27    13    15    ar
28    16    17    1
29    16    23    1
30    16    18    1
31    18    19    1
32    18    35    1
33    18    36    1
34    19    20    1
35    19    37    1
36    19    38    1
37    20    21    2
38    20    22    2
39    20    23    1
40    23    39    1
41    23    40    1
@<TRIPOS>SUBSTRUCTURE
1   ZINC000005576385 1     RESIDUE    1   A     ZIN   1
@<TRIPOS>MOLECULE
ZINC000017023721
41    43    1     0     0
SMALL
USER_CHARGES
@<TRIPOS>ATOM
1      O1      2.2989    2.7293    0.0813 O.co2    1 ZINC000017023721   -0.7000
2      C2      1.2486    3.3430    0.1644 C.2      1 ZINC000017023721    0.5000
3      O3      1.2565    4.5296    0.4447 O.co2    1 ZINC000017023721   -0.6900
4      C4     -0.0588    2.6364   -0.0855 C.3      1 ZINC000017023721   -0.1400
5      H5     -0.3156    2.7041   -1.1427 H        1 ZINC000017023721    0.0700
6      C6      0.0652    1.1663    0.3207 C.3      1 ZINC000017023721   -0.0700
7      C7     -1.2875    0.5166    0.3293 C.2      1 ZINC000017023721   -0.1100
8      C8     -2.4053    1.1690    0.3486 C.2      1 ZINC000017023721   -0.1800
9      C9     -2.5049    2.6663    0.3549 C.3      1 ZINC000017023721   -0.0700
10     C10    -1.1647    3.2854    0.7563 C.3      1 ZINC000017023721   -0.0900
11     H11    -1.1878    4.3596    0.5731 H        1 ZINC000017023721    0.1000
12     C12    -0.9046    3.0263    2.2179 C.2      1 ZINC000017023721    0.5400
13     O13    -0.9238    1.8915    2.6454 O.2      1 ZINC000017023721   -0.5400
14     N14    -0.6505    4.0557    3.0500 N.am     1 ZINC000017023721   -0.6100
15     C15    -0.7402    5.4428    2.5740 C.3      1 ZINC000017023721    0.1200
16     C16     0.5783    6.1576    2.8865 C.3      1 ZINC000017023721   -0.1300
17     C17     0.8878    6.0199    4.3785 C.3      1 ZINC000017023721    0.2600
18     C18     1.0356    4.5421    4.7457 C.3      1 ZINC000017023721   -0.1500
19     C19    -0.2845    3.8124    4.4520 C.3      1 ZINC000017023721    0.1200
20     O20     2.1038    6.7148    4.6830 O.3      1 ZINC000017023721   -0.3700
21     C21     1.7853    7.7268    5.6597 C.3      1 ZINC000017023721    0.0200
22     C22     0.4675    7.2065    6.2864 C.3      1 ZINC000017023721    0.0100
23     O23    -0.1818    6.5982    5.1440 O.3      1 ZINC000017023721   -0.3700
24     H24     0.7102    0.6485   -0.3892 H        1 ZINC000017023721    0.0600
25     H25     0.5031    1.1024    1.3168 H        1 ZINC000017023721    0.0800
26     H26    -1.3311   -0.5625    0.3183 H        1 ZINC000017023721    0.0900
27     H27    -3.3234    0.6003    0.3606 H        1 ZINC000017023721    0.0900
28     H28    -2.7761    3.0146   -0.6417 H        1 ZINC000017023721    0.0700
29     H29    -3.2729    2.9744    1.0644 H        1 ZINC000017023721    0.0600
30     H30    -0.9132    5.4494    1.4978 H        1 ZINC000017023721    0.1000
31     H31    -1.5604    5.9509    3.0811 H        1 ZINC000017023721    0.0600
32     H32     1.3829    5.7073    2.3051 H        1 ZINC000017023721    0.1200
33     H33     0.4898    7.2131    2.6293 H        1 ZINC000017023721    0.0700
34     H34     1.8381    4.0992    4.1559 H        1 ZINC000017023721    0.0900
35     H35     1.2710    4.4526    5.8062 H        1 ZINC000017023721    0.0700
36     H36    -1.0659    4.1913    5.1107 H        1 ZINC000017023721    0.0700
37     H37    -0.1544    2.7423    4.6139 H        1 ZINC000017023721    0.0900
38     H38     2.5697    7.7951    6.4134 H        1 ZINC000017023721    0.0900
39     H39     1.6279    8.6916    5.1775 H        1 ZINC000017023721    0.0700
40     H40     0.6693    6.4661    7.0605 H        1 ZINC000017023721    0.0700
41     H41    -0.1282    8.0293    6.6815 H        1 ZINC000017023721    0.1000
@<TRIPOS>BOND
1     1     2     ar
2     2     3     ar
3     2     4     1
4     4     5     1
5     4     10    1
6     4     6     1
7     6     7     1
8     6     24    1
9     6     25    1
10    7     8     2
11    7     26    1
12    8     9     1
13    8     27    1
14    9     10    1
15    9     28    1
16    9     29    1
17    10    11    1
18    10    12    1
19    12    13    2
20    12    14    am
21    14    19    1
22    14    15    1
23    15    16    1
24    15    30    1
25    15    31    1
26    16    17    1
27    16    32    1
28    16    33    1
29    17    23    1
30    17    18    1
31    17    20    1
32    18    19    1
33    18    34    1
34    18    35    1
35    19    36    1
36    19    37    1
37    20    21    1
38    21    22    1
39    21    38    1
40    21    39    1
41    22    23    1
42    22    40    1
43    22    41    1
@<TRIPOS>SUBSTRUCTURE
1   ZINC000017023721 1     RESIDUE    1   A     ZIN   1
@<TRIPOS>MOLECULE
ZINC000036972835
41    42    1     0     0
SMALL
USER_CHARGES
@<TRIPOS>ATOM
1      C1     -0.5606    1.5698    0.4740 C.3      1 ZINC000036972835   -0.1700
2      C2     -0.5241    0.0640    0.5199 C.2      1 ZINC000036972835    0.5100
3      O3      0.4842   -0.5075    0.8773 O.2      1 ZINC000036972835   -0.5400
4      N4     -1.6118   -0.6477    0.1637 N.am     1 ZINC000036972835   -0.6100
5      C5     -2.8385    0.0302   -0.2772 C.3      1 ZINC000036972835    0.1100
6      C6     -3.2514   -0.5348   -1.6399 C.3      1 ZINC000036972835   -0.1400
7      C7     -3.3756   -2.0569   -1.5403 C.3      1 ZINC000036972835   -0.1000
8      C8     -2.0204   -2.6571   -1.1591 C.3      1 ZINC000036972835   -0.1200
9      H9     -1.2771   -2.3816   -1.9073 H        1 ZINC000036972835    0.1000
10     C10    -2.1356   -4.1582   -1.0936 C.2      1 ZINC000036972835    0.5200
11     O11    -3.2121   -4.6751   -0.8816 O.2      1 ZINC000036972835   -0.5500
12     N12    -1.0424   -4.9264   -1.2706 N.am     1 ZINC000036972835   -0.6000
13     C13    -1.1574   -6.3900   -1.3291 C.3      1 ZINC000036972835    0.1100
14     C14    -0.4916   -6.8857   -2.6166 C.3      1 ZINC000036972835   -0.1100
15     C15     0.9464   -6.3654   -2.6755 C.3      1 ZINC000036972835   -0.1600
16     C16     1.6155   -6.8792   -3.9242 C.2      1 ZINC000036972835    0.5000
17     O17     2.4889   -6.2208   -4.4629 O.co2    1 ZINC000036972835   -0.7000
18     O18     1.2835   -7.9534   -4.3959 O.co2    1 ZINC000036972835   -0.7000
19     C19     0.9366   -4.8352   -2.6951 C.3      1 ZINC000036972835   -0.1100
20     C20     0.2862   -4.3158   -1.4146 C.3      1 ZINC000036972835    0.1000
21     C21    -1.5915   -2.1163    0.2033 C.3      1 ZINC000036972835    0.1200
22     H22     0.4027    1.9666    0.7946 H        1 ZINC000036972835    0.0900
23     H23    -0.7676    1.8973   -0.5448 H        1 ZINC000036972835    0.0900
24     H24    -1.3434    1.9347    1.1390 H        1 ZINC000036972835    0.0900
25     H25    -3.6337   -0.1454    0.4473 H        1 ZINC000036972835    0.0700
26     H26    -2.6526    1.1005   -0.3665 H        1 ZINC000036972835    0.0900
27     H27    -4.2112   -0.1100   -1.9342 H        1 ZINC000036972835    0.0800
28     H28    -2.4966   -0.2793   -2.3836 H        1 ZINC000036972835    0.0700
29     H29    -4.1128   -2.3120   -0.7789 H        1 ZINC000036972835    0.0800
30     H30    -3.6933   -2.4591   -2.5022 H        1 ZINC000036972835    0.0700
31     H31    -0.6579   -6.8306   -0.4663 H        1 ZINC000036972835    0.0600
32     H32    -2.2098   -6.6741   -1.3292 H        1 ZINC000036972835    0.0900
33     H33    -0.4848   -7.9757   -2.6262 H        1 ZINC000036972835    0.0800
34     H34    -1.0474   -6.5173   -3.4788 H        1 ZINC000036972835    0.0600
35     H35     1.4947   -6.7136   -1.8002 H        1 ZINC000036972835    0.0600
36     H36     1.9600   -4.4656   -2.7606 H        1 ZINC000036972835    0.0800
37     H37     0.3673   -4.4860   -3.5566 H        1 ZINC000036972835    0.0600
38     H38     0.1876   -3.2316   -1.4686 H        1 ZINC000036972835    0.0800
39     H39     0.9013   -4.5866   -0.5565 H        1 ZINC000036972835    0.0700
40     H40    -0.5840   -2.4630    0.4333 H        1 ZINC000036972835    0.1000
41     H41    -2.2840   -2.4650    0.9693 H        1 ZINC000036972835    0.0700
@<TRIPOS>BOND
1     1     2     1
2     1     22    1
3     1     23    1
4     1     24    1
5     2     3     2
6     2     4     am
7     4     21    1
8     4     5     1
9     5     6     1
10    5     25    1
11    5     26    1
12    6     7     1
13    6     27    1
14    6     28    1
15    7     8     1
16    7     29    1
17    7     30    1
18    8     9     1
19    8     10    1
20    8     21    1
21    10    11    2
22    10    12    am
23    12    20    1
24    12    13    1
25    13    14    1
26    13    31    1
27    13    32    1
28    14    15    1
29    14    33    1
30    14    34    1
31    15    16    1
32    15    19    1
33    15    35    1
34    16    17    ar
35    16    18    ar
36    19    20    1
37    19    36    1
38    19    37    1
39    20    38    1
40    20    39    1
41    21    40    1
42    21    41    1
@<TRIPOS>SUBSTRUCTURE
1   ZINC000036972835 1     RESIDUE    1   A     ZIN   1
@<TRIPOS>MOLECULE
ZINC000040524537
  44   45    0    0    0
SMALL
USER_CHARGES
NO_NAME
@<TRIPOS>ATOM
    1 C1        0.3946     1.3673    -0.3351 C.3    1 <0>      -0.1400
    2 C2        0.0454    -0.0871    -0.0135 C.3    1 <0>       0.1600
    3 H3        0.4195    -0.7364    -0.8051 H      1 <0>       0.0700
    4 C4       -1.4750    -0.2375     0.0984 C.3    1 <0>      -0.1300
    5 C5       -1.8107    -1.6588     0.5560 C.3    1 <0>      -0.1200
    6 C6       -1.1976    -1.9106     1.9354 C.3    1 <0>      -0.1400
    7 C7        0.3259    -1.7792     1.8443 C.3    1 <0>       0.0900
    8 N8        0.6567    -0.4689     1.2668 N.am   1 <0>      -0.6300
    9 C9        1.5006     0.3682     1.9021 C.2    1 <0>       0.7100
   10 O10       1.5313     1.5455     1.5997 O.2    1 <0>      -0.5800
   11 N11       2.3105    -0.0997     2.8724 N.am   1 <0>      -0.6300
   12 C12       2.5425    -1.5433     3.0312 C.3    1 <0>       0.1000
   13 C13       4.0539    -1.7907     3.0832 C.3    1 <0>       0.0400
   14 N14       4.6492    -0.9472     4.1283 N.3    1 <0>      -0.5400
   15 C15       6.0665    -1.2781     4.3280 C.3    1 <0>       0.0800
   16 C16       6.5851    -0.5658     5.5788 C.3    1 <0>      -0.1800
   17 C17       8.0391    -0.9052     5.7837 C.2    1 <0>       0.4900
   18 O18       8.6077    -1.6479     5.0017 O.co2  1 <0>      -0.7000
   19 O19       8.6467    -0.4371     6.7314 O.co2  1 <0>      -0.7000
   20 C20       4.4797     0.4795     3.8224 C.3    1 <0>       0.0400
   21 C21       2.9906     0.8202     3.7969 C.3    1 <0>       0.1400
   22 H22       1.4778     1.4896    -0.3346 H      1 <0>       0.0700
   23 H23       0.0001     1.6270    -1.3175 H      1 <0>       0.0400
   24 H24      -0.0452     2.0216     0.4176 H      1 <0>       0.0700
   25 H25      -1.8590     0.4788     0.8248 H      1 <0>       0.0700
   26 H26      -1.9316    -0.0509    -0.8736 H      1 <0>       0.0700
   27 H27      -2.8929    -1.7759     0.6127 H      1 <0>       0.0600
   28 H28      -1.4050    -2.3755    -0.1581 H      1 <0>       0.0600
   29 H29      -1.5842    -1.1786     2.6445 H      1 <0>       0.0700
   30 H30      -1.4568    -2.9148     2.2709 H      1 <0>       0.0700
   31 H31       0.7598    -1.8595     2.8410 H      1 <0>       0.1100
   32 H32       0.7232    -2.5683     1.2059 H      1 <0>       0.0700
   33 H33       2.0830    -1.8884     3.9574 H      1 <0>       0.0800
   34 H34       2.1128    -2.0786     2.1845 H      1 <0>       0.1000
   35 H35       4.2432    -2.8397     3.3108 H      1 <0>       0.0900
   36 H36       4.4966    -1.5416     2.1188 H      1 <0>       0.0300
   37 H37       6.1740    -2.3556     4.4525 H      1 <0>       0.0700
   38 H38       6.6411    -0.9534     3.4605 H      1 <0>       0.0300
   39 H39       6.4776     0.5117     5.4543 H      1 <0>       0.0600
   40 H40       6.0105    -0.8905     6.4463 H      1 <0>       0.0600
   41 H41       4.9778     1.0769     4.5861 H      1 <0>       0.0900
   42 H42       4.9165     0.6969     2.8477 H      1 <0>       0.0300
   43 H43       2.8558     1.8476     3.4587 H      1 <0>       0.0900
   44 H44       2.5708     0.7025     4.7959 H      1 <0>       0.0700
@<TRIPOS>BOND
   1    1    2 1
   2    1   22 1
   3    1   23 1
   4    1   24 1
   5    2    3 1
   6    2    8 1
   7    2    4 1
   8    4    5 1
   9    4   25 1
  10    4   26 1
  11    5    6 1
  12    5   27 1
  13    5   28 1
  14    6    7 1
  15    6   29 1
  16    6   30 1
  17    7    8 1
  18    7   31 1
  19    7   32 1
  20    8    9 am
  21    9   10 2
  22    9   11 am
  23   11   21 1
  24   11   12 1
  25   12   13 1
  26   12   33 1
  27   12   34 1
  28   13   14 1
  29   13   35 1
  30   13   36 1
  31   14   15 1
  32   14   20 1
  33   15   16 1
  34   15   37 1
  35   15   38 1
  36   16   17 1
  37   16   39 1
  38   16   40 1
  39   17   18 ar
  40   17   19 ar
  41   20   21 1
  42   20   41 1
  43   20   42 1
  44   21   43 1
  45   21   44 1

@<TRIPOS>MOLECULE
ZINC000040524537
  45   46    0    0    0
SMALL
USER_CHARGES
NO_NAME
@<TRIPOS>ATOM
    1 C1        0.3926     1.3704    -0.3327 C.3    1 <0>      -0.1400
    2 C2        0.0479    -0.0861    -0.0157 C.3    1 <0>       0.1600
    3 H3        0.4246    -0.7318    -0.8090 H      1 <0>       0.0700
    4 C4       -1.4720    -0.2418     0.0949 C.3    1 <0>      -0.1300
    5 C5       -1.8034    -1.6655     0.5480 C.3    1 <0>      -0.1200
    6 C6       -1.1902    -1.9195     1.9270 C.3    1 <0>      -0.1400
    7 C7        0.3330    -1.7828     1.8372 C.3    1 <0>       0.0800
    8 N8        0.6598    -0.4698     1.2638 N.am   1 <0>      -0.6200
    9 C9        1.5006     0.3682     1.9021 C.2    1 <0>       0.7200
   10 O10       1.5285     1.5462     1.6024 O.2    1 <0>      -0.5600
   11 N11       2.3105    -0.0997     2.8724 N.am   1 <0>      -0.6500
   12 C12       2.5436    -1.5433     3.0324 C.3    1 <0>       0.0700
   13 C13       4.0548    -1.7865     3.1034 C.3    1 <0>      -0.0200
   14 N14       4.6334    -0.9575     4.1683 N.4    1 <0>      -0.3800
   15 H15       4.1612    -1.1521     5.0385 H      1 <0>       0.4200
   16 C16       6.0620    -1.2699     4.3080 C.3    1 <0>       0.0100
   17 C17       6.6386    -0.4997     5.4976 C.3    1 <0>      -0.2200
   18 C18       8.1041    -0.8202     5.6409 C.2    1 <0>       0.5000
   19 O19       8.6379    -1.5930     4.8636 O.co2  1 <0>      -0.6900
   20 O20       8.7559    -0.3066     6.5341 O.co2  1 <0>      -0.6700
   21 C21       4.4772     0.4642     3.8360 C.3    1 <0>      -0.0200
   22 C22       2.9914     0.8192     3.7978 C.3    1 <0>       0.1100
   23 H23       1.4753     1.4962    -0.3314 H      1 <0>       0.0700
   24 H24      -0.0023     1.6318    -1.3145 H      1 <0>       0.0500
   25 H25      -0.0496     2.0210     0.4218 H      1 <0>       0.0700
   26 H26      -1.8587     0.4710     0.8232 H      1 <0>       0.0700
   27 H27      -1.9287    -0.0537    -0.8768 H      1 <0>       0.0800
   28 H28      -2.8852    -1.7864     0.6038 H      1 <0>       0.0700
   29 H29      -1.3949    -2.3788    -0.1679 H      1 <0>       0.0700
   30 H30      -1.5796    -1.1909     2.6381 H      1 <0>       0.0700
   31 H31      -1.4462    -2.9255     2.2594 H      1 <0>       0.0800
   32 H32       0.7666    -1.8647     2.8339 H      1 <0>       0.1000
   33 H33       0.7332    -2.5687     1.1967 H      1 <0>       0.0700
   34 H34       2.0731    -1.8906     3.9523 H      1 <0>       0.0900
   35 H35       2.1262    -2.0785     2.1795 H      1 <0>       0.1400
   36 H36       4.2440    -2.8382     3.3182 H      1 <0>       0.1400
   37 H37       4.5106    -1.5225     2.1491 H      1 <0>       0.1300
   38 H38       6.1853    -2.3401     4.4739 H      1 <0>       0.1300
   39 H39       6.5879    -0.9803     3.3983 H      1 <0>       0.1300
   40 H40       6.5152     0.5706     5.3317 H      1 <0>       0.0800
   41 H41       6.1127    -0.7893     6.4073 H      1 <0>       0.0800
   42 H42       4.9777     1.0710     4.5906 H      1 <0>       0.1500
   43 H43       4.9202     0.6601     2.8596 H      1 <0>       0.1300
   44 H44       2.8688     1.8460     3.4531 H      1 <0>       0.1300
   45 H45       2.5631     0.7107     4.7942 H      1 <0>       0.0900
@<TRIPOS>BOND
   1    1    2 1
   2    1   23 1
   3    1   24 1
   4    1   25 1
   5    2    3 1
   6    2    8 1
   7    2    4 1
   8    4    5 1
   9    4   26 1
  10    4   27 1
  11    5    6 1
  12    5   28 1
  13    5   29 1
  14    6    7 1
  15    6   30 1
  16    6   31 1
  17    7    8 1
  18    7   32 1
  19    7   33 1
  20    8    9 am
  21    9   10 2
  22    9   11 am
  23   11   22 1
  24   11   12 1
  25   12   13 1
  26   12   34 1
  27   12   35 1
  28   13   14 1
  29   13   36 1
  30   13   37 1
  31   14   15 1
  32   14   16 1
  33   14   21 1
  34   16   17 1
  35   16   38 1
  36   16   39 1
  37   17   18 1
  38   17   40 1
  39   17   41 1
  40   18   19 ar
  41   18   20 ar
  42   21   22 1
  43   21   42 1
  44   21   43 1
  45   22   44 1
  46   22   45 1
@<TRIPOS>MOLECULE
ZINC000040561608
  43   44    0    0    0
SMALL
USER_CHARGES
NO_NAME
@<TRIPOS>ATOM
    1 C1       -1.5268     0.2186    -0.6657 C.3    1 <0>      -0.1600
    2 C2       -0.0353     0.3436    -0.3483 C.3    1 <0>      -0.1100
    3 C3        0.7639    -0.5590    -1.2903 C.3    1 <0>       0.1700
    4 H4        0.5676    -0.2735    -2.3238 H      1 <0>       0.0600
    5 C5        0.3534    -2.0189    -1.0739 C.3    1 <0>      -0.1300
    6 C6        1.2517    -2.9275    -1.9164 C.3    1 <0>      -0.1200
    7 C7        2.7067    -2.7638    -1.4711 C.3    1 <0>      -0.1400
    8 C8        3.1440    -1.3123    -1.6920 C.3    1 <0>       0.0800
    9 N9        2.1987    -0.4210    -1.0052 N.am   1 <0>      -0.6300
   10 C10       2.6391     0.5017    -0.1271 C.2    1 <0>       0.7400
   11 O11       1.8597     1.0292     0.6427 O.2    1 <0>      -0.5700
   12 N12       3.9436     0.8397    -0.1022 N.am   1 <0>      -0.6000
   13 C13       4.9838     0.3177    -1.0072 C.3    1 <0>       0.0800
   14 C14       6.0883     1.4038    -1.0101 C.3    1 <0>       0.0700
   15 H15       7.0574     0.9749    -1.2650 H      1 <0>       0.0800
   16 O16       5.7542     2.4717    -1.8989 O.3    1 <0>      -0.3700
   17 C17       6.2542     2.3009    -3.2266 C.3    1 <0>       0.0300
   18 C18       6.0616     1.8792     0.4666 C.3    1 <0>      -0.1000
   19 C19       4.5637     1.7948     0.8277 C.3    1 <0>       0.0900
   20 H20       4.1011     2.7761     0.7222 H      1 <0>       0.0700
   21 C21       4.4047     1.3030     2.2433 C.2    1 <0>       0.5000
   22 O22       4.7007     2.0283     3.1775 O.co2  1 <0>      -0.7000
   23 O23       3.9799     0.1798     2.4543 O.co2  1 <0>      -0.6800
   24 H24      -1.7185     0.6028    -1.6676 H      1 <0>       0.0400
   25 H25      -1.8224    -0.8293    -0.6157 H      1 <0>       0.0500
   26 H26      -2.1021     0.7934     0.0601 H      1 <0>       0.0500
   27 H27       0.2793     1.3785    -0.4828 H      1 <0>       0.0800
   28 H28       0.1432     0.0407     0.6835 H      1 <0>       0.0900
   29 H29       0.4627    -2.2752    -0.0202 H      1 <0>       0.0700
   30 H30      -0.6853    -2.1533    -1.3757 H      1 <0>       0.0700
   31 H31       0.9457    -3.9651    -1.7832 H      1 <0>       0.0600
   32 H32       1.1607    -2.6543    -2.9677 H      1 <0>       0.0600
   33 H33       2.7938    -3.0131    -0.4136 H      1 <0>       0.0700
   34 H34       3.3430    -3.4284    -2.0556 H      1 <0>       0.0700
   35 H35       4.1449    -1.1664    -1.2859 H      1 <0>       0.1100
   36 H36       3.1441    -1.0891    -2.7589 H      1 <0>       0.0500
   37 H37       5.3792    -0.6244    -0.6273 H      1 <0>       0.0700
   38 H38       4.5809     0.1837    -2.0110 H      1 <0>       0.0800
   39 H39       7.3418     2.2335    -3.1994 H      1 <0>       0.0400
   40 H40       5.8440     1.3861    -3.6544 H      1 <0>       0.0400
   41 H41       5.9582     3.1528    -3.8388 H      1 <0>       0.0800
   42 H42       6.6520     1.2140     1.0966 H      1 <0>       0.0900
   43 H43       6.4182     2.9061     0.5477 H      1 <0>       0.0900
@<TRIPOS>BOND
   1    1    2 1
   2    1   24 1
   3    1   25 1
   4    1   26 1
   5    2    3 1
   6    2   27 1
   7    2   28 1
   8    3    4 1
   9    3    9 1
  10    3    5 1
  11    5    6 1
  12    5   29 1
  13    5   30 1
  14    6    7 1
  15    6   31 1
  16    6   32 1
  17    7    8 1
  18    7   33 1
  19    7   34 1
  20    8    9 1
  21    8   35 1
  22    8   36 1
  23    9   10 am
  24   10   11 2
  25   10   12 am
  26   12   19 1
  27   12   13 1
  28   13   14 1
  29   13   37 1
  30   13   38 1
  31   14   15 1
  32   14   16 1
  33   14   18 1
  34   16   17 1
  35   17   39 1
  36   17   40 1
  37   17   41 1
  38   18   19 1
  39   18   42 1
  40   18   43 1
  41   19   20 1
  42   19   21 1
  43   21   22 ar
  44   21   23 ar
@<TRIPOS>MOLECULE
ZINC000040724073
  37   38    0    0    0
SMALL
USER_CHARGES
NO_NAME
@<TRIPOS>ATOM
    1 C1       -0.0187     1.5258     0.0104 C.3    1 <0>      -0.1500
    2 C2        0.0021    -0.0041     0.0020 C.3    1 <0>      -0.1000
    3 H3       -1.0126    -0.4021    -0.0029 H      1 <0>       0.0800
    4 C4        0.8061    -0.5355    -1.2139 C.3    1 <0>      -0.1300
    5 C5        1.2786    -1.9164    -0.6948 C.3    1 <0>       0.1200
    6 N6        1.5752    -1.7014     0.7332 N.am   1 <0>      -1.0200
    7 S7        2.6112    -2.6103     1.6513 S.o2   1 <0>       2.8000
    8 O8        2.2009    -2.4452     3.0017 O.2    1 <0>      -0.9700
    9 O9        2.7029    -3.8783     1.0163 O.2    1 <0>      -0.9800
   10 N10       4.1103    -1.9172     1.5300 N.am   1 <0>      -1.0000
   11 C11       5.0396    -2.3244     0.4673 C.3    1 <0>       0.1200
   12 C12       5.4961    -1.0757    -0.2936 C.3    1 <0>      -0.1300
   13 C13       6.0780    -0.0641     0.6965 C.3    1 <0>      -0.0900
   14 C14       4.9985     0.3492     1.6996 C.3    1 <0>      -0.1600
   15 H15       4.1514     0.7797     1.1656 H      1 <0>       0.0600
   16 C16       5.5630     1.3701     2.6537 C.2    1 <0>       0.5000
   17 O17       5.9915     2.4297     2.2294 O.co2  1 <0>      -0.7000
   18 O18       5.5910     1.1363     3.8500 O.co2  1 <0>      -0.6900
   19 C19       4.5340    -0.8790     2.4794 C.3    1 <0>       0.1500
   20 C20       0.7953    -0.5460     1.2098 C.3    1 <0>       0.1200
   21 H21       1.0039     1.9031     0.0027 H      1 <0>       0.0600
   22 H22      -0.5459     1.8868    -0.8726 H      1 <0>       0.0600
   23 H23      -0.5289     1.8773     0.9072 H      1 <0>       0.0600
   24 H24       0.1648    -0.6454    -2.0884 H      1 <0>       0.0800
   25 H25       1.6558     0.1111    -1.4332 H      1 <0>       0.0800
   26 H26       0.4868    -2.6564    -0.8106 H      1 <0>       0.0700
   27 H27       2.1764    -2.2341    -1.2250 H      1 <0>       0.0700
   28 H28       5.9044    -2.8202     0.9083 H      1 <0>       0.0700
   29 H29       4.5352    -3.0058    -0.2179 H      1 <0>       0.0800
   30 H30       6.2587    -1.3519    -1.0218 H      1 <0>       0.0700
   31 H31       4.6443    -0.6318    -0.8088 H      1 <0>       0.0600
   32 H32       6.9143    -0.5170     1.2291 H      1 <0>       0.0600
   33 H33       6.4261     0.8153     0.1548 H      1 <0>       0.0700
   34 H34       3.6977    -0.6079     3.1238 H      1 <0>       0.0800
   35 H35       5.3563    -1.2597     3.0852 H      1 <0>       0.0700
   36 H36       1.4675     0.2255     1.5852 H      1 <0>       0.0700
   37 H37       0.1112    -0.8602     1.9980 H      1 <0>       0.0700
@<TRIPOS>BOND
   1    1    2 1
   2    1   21 1
   3    1   22 1
   4    1   23 1
   5    2    3 1
   6    2   20 1
   7    2    4 1
   8    4    5 1
   9    4   24 1
  10    4   25 1
  11    5    6 1
  12    5   26 1
  13    5   27 1
  14    6    7 am
  15    6   20 1
  16    7    8 2
  17    7    9 2
  18    7   10 am
  19   10   19 1
  20   10   11 1
  21   11   12 1
  22   11   28 1
  23   11   29 1
  24   12   13 1
  25   12   30 1
  26   12   31 1
  27   13   14 1
  28   13   32 1
  29   13   33 1
  30   14   15 1
  31   14   16 1
  32   14   19 1
  33   16   17 ar
  34   16   18 ar
  35   19   34 1
  36   19   35 1
  37   20   36 1
  38   20   37 1
@<TRIPOS>MOLECULE
ZINC000043428623
  40   41    0    0    0
SMALL
USER_CHARGES
NO_NAME
@<TRIPOS>ATOM
    1 C1        0.7338     1.6416    -0.0257 C.3    1 <0>      -0.1100
    2 C2        0.2798     0.1883    -0.1762 C.3    1 <0>      -0.1700
    3 H3       -0.7935     0.1605    -0.3644 H      1 <0>       0.0600
    4 C4        0.5922    -0.5794     1.1098 C.3    1 <0>       0.1600
    5 N5       -0.2080    -0.0354     2.2099 N.am   1 <0>      -0.6300
    6 C6       -1.5351    -0.5875     2.4931 C.3    1 <0>       0.0700
    7 C7        0.2768     0.9730     2.9613 C.2    1 <0>       0.7100
    8 O8        1.2499     1.5976     2.5856 O.2    1 <0>      -0.5600
    9 N9       -0.3171     1.2889     4.1292 N.am   1 <0>      -0.6300
   10 C10      -1.2110     0.3531     4.8492 C.3    1 <0>       0.0300
   11 C11      -2.5112     1.0472     5.2511 C.3    1 <0>       0.0500
   12 O12      -2.2703     2.3465     5.8221 O.3    1 <0>      -0.3700
   13 C13      -1.5606     3.1721     4.9289 C.3    1 <0>       0.0600
   14 H14      -2.0524     3.1488     3.9565 H      1 <0>       0.0600
   15 C15      -1.2817     4.6171     5.3079 C.3    1 <0>      -0.1100
   16 C16       0.0647     4.9637     4.6208 C.3    1 <0>      -0.1200
   17 C17       0.5588     3.6544     3.9442 C.3    1 <0>      -0.1100
   18 C18      -0.1249     2.5771     4.7860 C.3    1 <0>       0.1300
   19 H19       0.3753     2.4606     5.7474 H      1 <0>       0.0900
   20 C20       1.0089    -0.4487    -1.3311 C.2    1 <0>       0.5000
   21 O21       1.7131    -1.4260    -1.1430 O.co2  1 <0>      -0.7000
   22 O22       0.8946     0.0134    -2.4536 O.co2  1 <0>      -0.7000
   23 H23       1.8070     1.6694     0.1625 H      1 <0>       0.0500
   24 H24       0.5112     2.1885    -0.9419 H      1 <0>       0.0400
   25 H25       0.2064     2.1023     0.8096 H      1 <0>       0.0400
   26 H26       0.3508    -1.6333     0.9716 H      1 <0>       0.0800
   27 H27       1.6514    -0.4772     1.3459 H      1 <0>       0.0800
   28 H28      -1.4352    -1.4617     3.1365 H      1 <0>       0.0600
   29 H29      -2.1424     0.1656     2.9952 H      1 <0>       0.0700
   30 H30      -2.0151    -0.8773     1.5584 H      1 <0>       0.0700
   31 H31      -1.4412    -0.4930     4.2017 H      1 <0>       0.1300
   32 H32      -0.7056    -0.0085     5.7447 H      1 <0>       0.0700
   33 H33      -3.1416     1.1584     4.3689 H      1 <0>       0.0600
   34 H34      -3.0322     0.4291     5.9823 H      1 <0>       0.1100
   35 H35      -2.0745     5.2657     4.9353 H      1 <0>       0.0700
   36 H36      -1.1901     4.7135     6.3898 H      1 <0>       0.0800
   37 H37      -0.0869     5.7391     3.8699 H      1 <0>       0.0700
   38 H38       0.7891     5.2976     5.3637 H      1 <0>       0.0700
   39 H39       0.2434     3.6161     2.9015 H      1 <0>       0.0800
   40 H40       1.6420     3.5636     4.0244 H      1 <0>       0.0800
@<TRIPOS>BOND
   1    1    2 1
   2    1   23 1
   3    1   24 1
   4    1   25 1
   5    2    3 1
   6    2    4 1
   7    2   20 1
   8    4    5 1
   9    4   26 1
  10    4   27 1
  11    5    6 1
  12    5    7 am
  13    6   28 1
  14    6   29 1
  15    6   30 1
  16    7    8 2
  17    7    9 am
  18    9   18 1
  19    9   10 1
  20   10   11 1
  21   10   31 1
  22   10   32 1
  23   11   12 1
  24   11   33 1
  25   11   34 1
  26   12   13 1
  27   13   14 1
  28   13   18 1
  29   13   15 1
  30   15   16 1
  31   15   35 1
  32   15   36 1
  33   16   17 1
  34   16   37 1
  35   16   38 1
  36   17   18 1
  37   17   39 1
  38   17   40 1
  39   18   19 1
  40   20   21 ar
  41   20   22 ar
@<TRIPOS>MOLECULE
ZINC000049933962
41    42    1     0     0
SMALL
USER_CHARGES
@<TRIPOS>ATOM
1      C1     -1.1604    1.4953   -1.9104 C.3      1 ZINC000049933962    0.0200
2      O2     -1.1924    0.0698   -2.0046 O.3      1 ZINC000049933962   -0.3000
3      C3     -1.8023   -0.6024   -0.9917 C.ar     1 ZINC000049933962    0.1000
4      C4     -2.3617    0.0961    0.0645 C.ar     1 ZINC000049933962   -0.1800
5      C5     -2.9847   -0.5817    1.0998 C.ar     1 ZINC000049933962   -0.0900
6      C6     -3.0539   -1.9574    1.0888 C.ar     1 ZINC000049933962   -0.1200
7      C7     -2.4938   -2.6771    0.0291 C.ar     1 ZINC000049933962   -0.1200
8      C8     -2.5654   -4.1507    0.0139 C.2      1 ZINC000049933962    0.5700
9      O9     -1.5485   -4.8076   -0.0986 O.2      1 ZINC000049933962   -0.5000
10     N10    -3.7580   -4.7686    0.1247 N.am     1 ZINC000049933962   -0.6000
11     C11    -3.8538   -6.1821    0.2364 C.3      1 ZINC000049933962    0.1200
12     C12    -3.8232   -6.9468   -1.1272 C.3      1 ZINC000049933962   -0.1600
13     C13    -4.6310   -6.0917   -2.1574 C.3      1 ZINC000049933962    0.1100
14     N14    -5.7862   -5.4583   -1.6247 N.am     1 ZINC000049933962   -0.6000
15     C15    -6.9611   -6.1102   -1.5199 C.2      1 ZINC000049933962    0.5200
16     C16    -7.0433   -7.5751   -1.8639 C.3      1 ZINC000049933962   -0.1800
17     O17    -7.9523   -5.5180   -1.1488 O.2      1 ZINC000049933962   -0.5400
18     C18    -5.6412   -4.0459   -1.1879 C.3      1 ZINC000049933962    0.0900
19     C19    -5.0302   -4.0017    0.1419 C.3      1 ZINC000049933962    0.0800
20     C20    -1.8693   -1.9923   -1.0199 C.ar     1 ZINC000049933962    0.1200
21     O21    -1.3221   -2.6808   -2.0539 O.3      1 ZINC000049933962   -0.4700
22     H22    -0.6468    1.9055   -2.7799 H        1 ZINC000049933962    0.1000
23     H23    -2.1797    1.8801   -1.8755 H        1 ZINC000049933962    0.0600
24     H24    -0.6305    1.7878   -1.0039 H        1 ZINC000049933962    0.0600
25     H25    -2.3118    1.1748    0.0817 H        1 ZINC000049933962    0.1400
26     H26    -3.4180   -0.0286    1.9200 H        1 ZINC000049933962    0.1400
27     H27    -3.5406   -2.4801    1.8989 H        1 ZINC000049933962    0.1400
28     H28    -3.0253   -6.5366    0.8495 H        1 ZINC000049933962    0.0700
29     H29    -4.7852   -6.4255    0.7476 H        1 ZINC000049933962    0.0700
30     H30    -2.7934   -7.0602   -1.4658 H        1 ZINC000049933962    0.0800
31     H31    -4.2872   -7.9265   -1.0135 H        1 ZINC000049933962    0.0800
32     H32    -3.9713   -5.3235   -2.5606 H        1 ZINC000049933962    0.0700
33     H33    -4.9402   -6.7404   -2.9769 H        1 ZINC000049933962    0.0700
34     H34    -6.0839   -7.9102   -2.2582 H        1 ZINC000049933962    0.0800
35     H35    -7.2870   -8.1457   -0.9678 H        1 ZINC000049933962    0.1000
36     H36    -7.8183   -7.7291   -2.6147 H        1 ZINC000049933962    0.1000
37     H37    -5.0097   -3.5100   -1.8965 H        1 ZINC000049933962    0.0800
38     H38    -6.6235   -3.5751   -1.1501 H        1 ZINC000049933962    0.1000
39     H39    -5.7130   -4.4404    0.8695 H        1 ZINC000049933962    0.0900
40     H40    -4.8275   -2.9659    0.4138 H        1 ZINC000049933962    0.1000
41     H41    -1.9327   -2.8417   -2.7862 H        1 ZINC000049933962    0.3900
@<TRIPOS>BOND
1     1     2     1
2     1     22    1
3     1     23    1
4     1     24    1
5     2     3     1
6     3     20    ar
7     3     4     ar
8     4     5     ar
9     4     25    1
10    5     6     ar
11    5     26    1
12    6     7     ar
13    6     27    1
14    7     8     1
15    7     20    ar
16    8     9     2
17    8     10    am
18    10    19    1
19    10    11    1
20    11    12    1
21    11    28    1
22    11    29    1
23    12    13    1
24    12    30    1
25    12    31    1
26    13    14    1
27    13    32    1
28    13    33    1
29    14    15    am
30    14    18    1
31    15    16    1
32    15    17    2
33    16    34    1
34    16    35    1
35    16    36    1
36    18    19    1
37    18    37    1
38    18    38    1
39    19    39    1
40    19    40    1
41    20    21    1
42    21    41    1
@<TRIPOS>SUBSTRUCTURE
1   ZINC000049933962 1     RESIDUE    1   A     ZIN   1

@<TRIPOS>MOLECULE
ZINC000049933962
40    41    1     0     0
SMALL
USER_CHARGES
@<TRIPOS>ATOM
1      C1     -1.1604    1.4949   -1.9167 C.3      1 ZINC000049933962    0.0300
2      O2     -1.1921    0.0692   -2.0081 O.3      1 ZINC000049933962   -0.3100
3      C3     -1.8035   -0.6010   -0.9949 C.ar     1 ZINC000049933962   -0.0100
4      C4     -2.3645    0.0995    0.0591 C.ar     1 ZINC000049933962   -0.1500
5      C5     -2.9890   -0.5763    1.0948 C.ar     1 ZINC000049933962   -0.2400
6      C6     -3.0582   -1.9520    1.0864 C.ar     1 ZINC000049933962   -0.0600
7      C7     -2.4964   -2.6737    0.0291 C.ar     1 ZINC000049933962   -0.2900
8      C8     -2.5679   -4.1474    0.0167 C.2      1 ZINC000049933962    0.6000
9      O9     -1.5507   -4.8044   -0.0930 O.2      1 ZINC000049933962   -0.5300
10     N10    -3.7606   -4.7651    0.1269 N.am     1 ZINC000049933962   -0.6100
11     C11    -3.8565   -6.1784    0.2412 C.3      1 ZINC000049933962    0.1300
12     C12    -3.8237   -6.9458   -1.1208 C.3      1 ZINC000049933962   -0.1500
13     C13    -4.6300   -6.0928   -2.1539 C.3      1 ZINC000049933962    0.1100
14     N14    -5.7861   -5.4584   -1.6242 N.am     1 ZINC000049933962   -0.5900
15     C15    -6.9611   -6.1102   -1.5199 C.2      1 ZINC000049933962    0.5100
16     C16    -8.1662   -5.4050   -0.9530 C.3      1 ZINC000049933962   -0.1700
17     O17    -7.0486   -7.2643   -1.8824 O.2      1 ZINC000049933962   -0.5500
18     C18    -5.6418   -4.0451   -1.1900 C.3      1 ZINC000049933962    0.0900
19     C19    -5.0329   -3.9983    0.1406 C.3      1 ZINC000049933962    0.0900
20     C20    -1.8704   -1.9910   -1.0204 C.ar     1 ZINC000049933962    0.3000
21     O21    -1.3215   -2.6815   -2.0521 O.3      1 ZINC000049933962   -0.6800
22     H22    -0.6454    1.9033   -2.7863 H        1 ZINC000049933962    0.0800
23     H23    -2.1797    1.8797   -1.8842 H        1 ZINC000049933962    0.0400
24     H24    -0.6318    1.7892   -1.0100 H        1 ZINC000049933962    0.0400
25     H25    -2.3148    1.1782    0.0743 H        1 ZINC000049933962    0.1000
26     H26    -3.4236   -0.0215    1.9132 H        1 ZINC000049933962    0.1000
27     H27    -3.5460   -2.4731    1.8969 H        1 ZINC000049933962    0.1000
28     H28    -3.0288   -6.5317    0.8563 H        1 ZINC000049933962    0.0600
29     H29    -4.7886   -6.4208    0.7515 H        1 ZINC000049933962    0.0600
30     H30    -2.7934   -7.0598   -1.4577 H        1 ZINC000049933962    0.0800
31     H31    -4.2879   -7.9253   -1.0059 H        1 ZINC000049933962    0.0700
32     H32    -3.9698   -5.3253   -2.5577 H        1 ZINC000049933962    0.0800
33     H33    -4.9380   -6.7431   -2.9727 H        1 ZINC000049933962    0.0700
34     H34    -8.7156   -4.9192   -1.7594 H        1 ZINC000049933962    0.0900
35     H35    -8.8124   -6.1304   -0.4586 H        1 ZINC000049933962    0.0900
36     H36    -7.8423   -4.6555   -0.2310 H        1 ZINC000049933962    0.0800
37     H37    -5.0093   -3.5106   -1.8987 H        1 ZINC000049933962    0.0900
38     H38    -6.6243   -3.5744   -1.1546 H        1 ZINC000049933962    0.0900
39     H39    -5.7167   -4.4356    0.8681 H        1 ZINC000049933962    0.0700
40     H40    -4.8307   -2.9619    0.4108 H        1 ZINC000049933962    0.1100
@<TRIPOS>BOND
1     1     2     1
2     1     22    1
3     1     23    1
4     1     24    1
5     2     3     1
6     3     20    ar
7     3     4     ar
8     4     5     ar
9     4     25    1
10    5     6     ar
11    5     26    1
12    6     7     ar
13    6     27    1
14    7     8     1
15    7     20    ar
16    8     9     2
17    8     10    am
18    10    19    1
19    10    11    1
20    11    12    1
21    11    28    1
22    11    29    1
23    12    13    1
24    12    30    1
25    12    31    1
26    13    14    1
27    13    32    1
28    13    33    1
29    14    15    am
30    14    18    1
31    15    16    1
32    15    17    2
33    16    34    1
34    16    35    1
35    16    36    1
36    18    19    1
37    18    37    1
38    18    38    1
39    19    39    1
40    19    40    1
41    20    21    1
@<TRIPOS>SUBSTRUCTURE
1   ZINC000049933962 1     RESIDUE    1   A     ZIN   1
@<TRIPOS>MOLECULE
ZINC000054295896
44    45    1     0     0
SMALL
USER_CHARGES
@<TRIPOS>ATOM
1      C1     -0.7956    1.6042   -0.5349 C.3      1 ZINC000054295896   -0.1700
2      C2     -0.7651    0.1002   -0.6247 C.2      1 ZINC000054295896    0.5100
3      O3      0.1816   -0.4576   -1.1381 O.2      1 ZINC000054295896   -0.5400
4      N4     -1.7899   -0.6250   -0.1347 N.am     1 ZINC000054295896   -0.6100
5      C5     -2.9465    0.0366    0.4845 C.3      1 ZINC000054295896    0.1100
6      C6     -3.1645   -0.5558    1.8803 C.3      1 ZINC000054295896   -0.1400
7      C7     -3.2950   -2.0766    1.7701 C.3      1 ZINC000054295896   -0.1000
8      C8     -2.0032   -2.6608    1.1938 C.3      1 ZINC000054295896   -0.1300
9      H9     -1.1646   -2.3939    1.8370 H        1 ZINC000054295896    0.1000
10     C10    -2.1202   -4.1612    1.1165 C.2      1 ZINC000054295896    0.5200
11     O11    -3.2145   -4.6837    1.0931 O.2      1 ZINC000054295896   -0.5500
12     N12    -1.0089   -4.9225    1.0734 N.am     1 ZINC000054295896   -0.6000
13     C13    -1.1049   -6.3778    0.8954 C.3      1 ZINC000054295896    0.1100
14     C14    -0.3286   -7.0647    2.0234 C.3      1 ZINC000054295896   -0.1300
15     C15     1.1044   -6.5281    2.0514 C.3      1 ZINC000054295896   -0.1200
16     C16     1.0819   -5.0230    2.3274 C.3      1 ZINC000054295896   -0.0700
17     H17     0.5839   -4.8349    3.2786 H        1 ZINC000054295896    0.0700
18     C18     2.5161   -4.4936    2.3886 C.3      1 ZINC000054295896   -0.1800
19     C19     3.2272   -5.1044    3.5685 C.2      1 ZINC000054295896    0.4900
20     O20     2.6412   -5.8904    4.2934 O.co2    1 ZINC000054295896   -0.6900
21     O21     4.3885   -4.8127    3.7983 O.co2    1 ZINC000054295896   -0.7100
22     C22     0.3218   -4.3122    1.1973 C.3      1 ZINC000054295896    0.1000
23     C23    -1.7746   -2.0920   -0.2149 C.3      1 ZINC000054295896    0.1300
24     H24     0.1114    2.0133   -0.9801 H        1 ZINC000054295896    0.0900
25     H25    -1.6660    1.9827   -1.0709 H        1 ZINC000054295896    0.0900
26     H26    -0.8542    1.9046    0.5112 H        1 ZINC000054295896    0.0900
27     H27    -2.7544    1.1063    0.5674 H        1 ZINC000054295896    0.0900
28     H28    -3.8336   -0.1312   -0.1262 H        1 ZINC000054295896    0.0700
29     H29    -2.3150   -0.3088    2.5171 H        1 ZINC000054295896    0.0700
30     H30    -4.0759   -0.1428    2.3125 H        1 ZINC000054295896    0.0800
31     H31    -3.4747   -2.4983    2.7590 H        1 ZINC000054295896    0.0700
32     H32    -4.1294   -2.3228    1.1134 H        1 ZINC000054295896    0.0800
33     H33    -2.1508   -6.6824    0.9335 H        1 ZINC000054295896    0.0900
34     H34    -0.6755   -6.6574   -0.0666 H        1 ZINC000054295896    0.0600
35     H35    -0.8134   -6.8575    2.9774 H        1 ZINC000054295896    0.0600
36     H36    -0.3108   -8.1407    1.8499 H        1 ZINC000054295896    0.0700
37     H37     1.6660   -7.0331    2.8373 H        1 ZINC000054295896    0.1000
38     H38     1.5805   -6.7136    1.0886 H        1 ZINC000054295896    0.0500
39     H39     3.0409   -4.7591    1.4709 H        1 ZINC000054295896    0.0600
40     H40     2.4988   -3.4090    2.4965 H        1 ZINC000054295896    0.0600
41     H41     0.8697   -4.4242    0.2617 H        1 ZINC000054295896    0.0700
42     H42     0.2164   -3.2541    1.4370 H        1 ZINC000054295896    0.0800
43     H43    -2.5667   -2.4352   -0.8804 H        1 ZINC000054295896    0.0700
44     H44    -0.8078   -2.4261   -0.5914 H        1 ZINC000054295896    0.1000
@<TRIPOS>BOND
1     1     2     1
2     1     24    1
3     1     25    1
4     1     26    1
5     2     3     2
6     2     4     am
7     4     23    1
8     4     5     1
9     5     6     1
10    5     27    1
11    5     28    1
12    6     7     1
13    6     29    1
14    6     30    1
15    7     8     1
16    7     31    1
17    7     32    1
18    8     9     1
19    8     10    1
20    8     23    1
21    10    11    2
22    10    12    am
23    12    22    1
24    12    13    1
25    13    14    1
26    13    33    1
27    13    34    1
28    14    15    1
29    14    35    1
30    14    36    1
31    15    16    1
32    15    37    1
33    15    38    1
34    16    17    1
35    16    18    1
36    16    22    1
37    18    19    1
38    18    39    1
39    18    40    1
40    19    20    ar
41    19    21    ar
42    22    41    1
43    22    42    1
44    23    43    1
45    23    44    1
@<TRIPOS>SUBSTRUCTURE
1   ZINC000054295896 1     RESIDUE    1   A     ZIN   1
@<TRIPOS>MOLECULE
ZINC000062846119
40    41    1     0     0
SMALL
USER_CHARGES
@<TRIPOS>ATOM
1      C1     -0.6167    1.2669    0.5202 C.3      1 ZINC000062846119   -0.1600
2      C2     -0.9335   -0.2292    0.4746 C.3      1 ZINC000062846119   -0.0900
3      C3     -2.3364   -0.4363   -0.0997 C.3      1 ZINC000062846119   -0.1300
4      C4     -3.3450    0.2639    0.7742 C.2      1 ZINC000062846119    0.5000
5      O5     -3.2713    1.4688    0.9450 O.co2    1 ZINC000062846119   -0.6900
6      O6     -4.2345   -0.3746    1.3104 O.co2    1 ZINC000062846119   -0.7000
7      C7     -2.3987    0.1433   -1.5147 C.3      1 ZINC000062846119   -0.1100
8      C8     -1.3489   -0.5466   -2.3914 C.3      1 ZINC000062846119    0.1300
9      N9     -1.5576   -1.9994   -2.3246 N.am     1 ZINC000062846119   -0.6200
10     C10    -1.7016   -2.7250   -3.4513 C.2      1 ZINC000062846119    0.7200
11     O11    -2.0447   -2.1826   -4.4840 O.2      1 ZINC000062846119   -0.5900
12     N12    -1.4654   -4.0517   -3.4331 N.am     1 ZINC000062846119   -0.6300
13     C13    -1.8093   -4.8982   -4.5867 C.3      1 ZINC000062846119    0.0900
14     C14    -0.5823   -5.7424   -4.9497 C.3      1 ZINC000062846119    0.0500
15     O15    -0.1153   -6.4208   -3.7813 O.3      1 ZINC000062846119   -0.3800
16     C16     0.3249   -5.5506   -2.7359 C.3      1 ZINC000062846119    0.0500
17     C17    -0.8504   -4.6957   -2.2616 C.3      1 ZINC000062846119    0.0500
18     C18    -1.6059   -2.6463   -1.0063 C.3      1 ZINC000062846119    0.0900
19     C19    -2.6530   -1.9329   -0.1451 C.3      1 ZINC000062846119   -0.1000
20     H20     0.3828    1.4144    0.9293 H        1 ZINC000062846119    0.0300
21     H21    -0.6610    1.6786   -0.4882 H        1 ZINC000062846119    0.0400
22     H22    -1.3463    1.7737    1.1518 H        1 ZINC000062846119    0.1000
23     H23    -0.2039   -0.7360   -0.1571 H        1 ZINC000062846119    0.0400
24     H24    -0.8892   -0.6409    1.4829 H        1 ZINC000062846119    0.0500
25     H25    -3.3907   -0.0259   -1.9338 H        1 ZINC000062846119    0.0600
26     H26    -2.1962    1.2137   -1.4787 H        1 ZINC000062846119    0.0800
27     H27    -1.4550   -0.2092   -3.4225 H        1 ZINC000062846119    0.0800
28     H28    -0.3510   -0.3036   -2.0262 H        1 ZINC000062846119    0.0600
29     H29    -2.6413   -5.5526   -4.3267 H        1 ZINC000062846119    0.0700
30     H30    -2.0863   -4.2700   -5.4333 H        1 ZINC000062846119    0.1000
31     H31    -0.8557   -6.4736   -5.7105 H        1 ZINC000062846119    0.1000
32     H32     0.2052   -5.0938   -5.3334 H        1 ZINC000062846119    0.0600
33     H33     0.7043   -6.1439   -1.9039 H        1 ZINC000062846119    0.1100
34     H34     1.1158   -4.9013   -3.1115 H        1 ZINC000062846119    0.0500
35     H35    -0.4942   -3.9347   -1.5673 H        1 ZINC000062846119    0.1200
36     H36    -1.5883   -5.3278   -1.7675 H        1 ZINC000062846119    0.0800
37     H37    -1.8817   -3.6943   -1.1234 H        1 ZINC000062846119    0.0900
38     H38    -0.6291   -2.5745   -0.5281 H        1 ZINC000062846119    0.0700
39     H39    -2.6313   -2.3402    0.8657 H        1 ZINC000062846119    0.0700
40     H40    -3.6425   -2.0825   -0.5771 H        1 ZINC000062846119    0.0600
@<TRIPOS>BOND
1     1     2     1
2     1     20    1
3     1     21    1
4     1     22    1
5     2     3     1
6     2     23    1
7     2     24    1
8     3     19    1
9     3     4     1
10    3     7     1
11    4     5     ar
12    4     6     ar
13    7     8     1
14    7     25    1
15    7     26    1
16    8     9     1
17    8     27    1
18    8     28    1
19    9     10    am
20    9     18    1
21    10    11    2
22    10    12    am
23    12    17    1
24    12    13    1
25    13    14    1
26    13    29    1
27    13    30    1
28    14    15    1
29    14    31    1
30    14    32    1
31    15    16    1
32    16    17    1
33    16    33    1
34    16    34    1
35    17    35    1
36    17    36    1
37    18    19    1
38    18    37    1
39    18    38    1
40    19    39    1
41    19    40    1
@<TRIPOS>SUBSTRUCTURE
1   ZINC000062846119 1     RESIDUE    1   A     ZIN   1
@<TRIPOS>MOLECULE
ZINC000062925280
40    41    1     0     0
SMALL
USER_CHARGES
@<TRIPOS>ATOM
1      C1     -0.0585    1.7234   -0.7668 C.3      1 ZINC000062925280   -0.1600
2      C2      0.0729    0.2355   -0.4355 C.3      1 ZINC000062925280   -0.0900
3      C3      0.6093   -0.5136   -1.6570 C.3      1 ZINC000062925280   -0.1400
4      C4     -0.3030   -0.3075   -2.8386 C.2      1 ZINC000062925280    0.5100
5      O5     -0.5170    0.8185   -3.2545 O.co2    1 ZINC000062925280   -0.6900
6      O6     -0.8272   -1.2667   -3.3787 O.co2    1 ZINC000062925280   -0.6900
7      C7      2.0418   -0.0381   -1.9923 C.3      1 ZINC000062925280   -0.1100
8      C8      2.9288   -1.1110   -1.3121 C.3      1 ZINC000062925280    0.0800
9      N9      2.1704   -2.3650   -1.5276 N.am     1 ZINC000062925280   -0.6300
10     C10     2.6756   -3.5777   -1.8282 C.2      1 ZINC000062925280    0.7300
11     O11     1.9274   -4.5046   -2.0720 O.2      1 ZINC000062925280   -0.5800
12     N12     4.0103   -3.7631   -1.8586 N.am     1 ZINC000062925280   -0.6400
13     C13     4.9263   -2.7710   -1.2739 C.3      1 ZINC000062925280    0.0500
14     C14     5.8976   -3.5013   -0.3395 C.3      1 ZINC000062925280    0.0500
15     O15     6.5038   -4.5865   -1.0456 O.3      1 ZINC000062925280   -0.3800
16     C16     5.5818   -5.5874   -1.4838 C.3      1 ZINC000062925280    0.0500
17     C17     4.5941   -4.9666   -2.4719 C.3      1 ZINC000062925280    0.1300
18     H18     5.1163   -4.6888   -3.3874 H        1 ZINC000062925280    0.0700
19     C19     3.4874   -5.9725   -2.7949 C.3      1 ZINC000062925280   -0.1400
20     C20     0.7494   -2.0151   -1.3448 C.3      1 ZINC000062925280    0.1400
21     H21     0.9188    2.1229   -1.0378 H        1 ZINC000062925280    0.0400
22     H22    -0.7472    1.8502   -1.6021 H        1 ZINC000062925280    0.1000
23     H23    -0.4406    2.2571    0.1034 H        1 ZINC000062925280    0.0300
24     H24     0.7616    0.1087    0.3998 H        1 ZINC000062925280    0.0400
25     H25    -0.9044   -0.1641   -0.1645 H        1 ZINC000062925280    0.0500
26     H26     2.2035   -0.0303   -3.0702 H        1 ZINC000062925280    0.0700
27     H27     2.2315    0.9467   -1.5653 H        1 ZINC000062925280    0.0800
28     H28     3.9052   -1.1645   -1.7937 H        1 ZINC000062925280    0.0900
29     H29     3.0348   -0.9038   -0.2473 H        1 ZINC000062925280    0.0700
30     H30     5.4842   -2.2739   -2.0675 H        1 ZINC000062925280    0.0700
31     H31     4.3566   -2.0339   -0.7080 H        1 ZINC000062925280    0.1200
32     H32     6.6696   -2.8090   -0.0036 H        1 ZINC000062925280    0.1000
33     H33     5.3531   -3.8867    0.5225 H        1 ZINC000062925280    0.0500
34     H34     6.1267   -6.3959   -1.9712 H        1 ZINC000062925280    0.1000
35     H35     5.0362   -5.9804   -0.6260 H        1 ZINC000062925280    0.0600
36     H36     2.9129   -6.1827   -1.8927 H        1 ZINC000062925280    0.0800
37     H37     2.8284   -5.5555   -3.5564 H        1 ZINC000062925280    0.0700
38     H38     3.9325   -6.8958   -3.1655 H        1 ZINC000062925280    0.0400
39     H39     0.4486   -2.2099   -0.3153 H        1 ZINC000062925280    0.0500
40     H40     0.1328   -2.5960   -2.0307 H        1 ZINC000062925280    0.1000
@<TRIPOS>BOND
1     1     2     1
2     1     21    1
3     1     22    1
4     1     23    1
5     2     3     1
6     2     24    1
7     2     25    1
8     3     20    1
9     3     4     1
10    3     7     1
11    4     5     ar
12    4     6     ar
13    7     8     1
14    7     26    1
15    7     27    1
16    8     9     1
17    8     28    1
18    8     29    1
19    9     10    am
20    9     20    1
21    10    11    2
22    10    12    am
23    12    17    1
24    12    13    1
25    13    14    1
26    13    30    1
27    13    31    1
28    14    15    1
29    14    32    1
30    14    33    1
31    15    16    1
32    16    17    1
33    16    34    1
34    16    35    1
35    17    18    1
36    17    19    1
37    19    36    1
38    19    37    1
39    19    38    1
40    20    39    1
41    20    40    1
@<TRIPOS>SUBSTRUCTURE
1   ZINC000062925280 1     RESIDUE    1   A     ZIN   1
@<TRIPOS>MOLECULE
ZINC000071274516
  31   33    0    0    0
SMALL
USER_CHARGES
NO_NAME
@<TRIPOS>ATOM
    1 C1       -1.4400    -2.3796     4.3012 C.3    1 <0>       0.0600
    2 N2       -1.5512    -0.9218     4.3943 N.pl3  1 <0>      -0.4400
    3 C3       -2.3901    -0.2222     5.2193 C.2    1 <0>      -0.0400
    4 C4       -2.1674     1.0849     4.9838 C.2    1 <0>      -0.0300
    5 N5       -1.2185     1.1808     4.0408 N.2    1 <0>      -0.4700
    6 C6       -0.8410    -0.0171     3.6866 C.2    1 <0>       0.1600
    7 C7        0.2071    -0.3379     2.6523 C.3    1 <0>       0.2200
    8 N8        1.5350    -0.2797     3.2683 N.am   1 <0>      -0.5300
    9 C9        2.2595    -1.3021     3.7743 C.2    1 <0>       0.3600
   10 S10       1.7545    -2.9377     3.7996 S.2    1 <0>      -0.4000
   11 N11       3.4277    -0.8565     4.2522 N.2    1 <0>      -0.1300
   12 N12       3.5849     0.3611     4.1296 N.2    1 <0>      -0.0600
   13 C13       2.3873     0.9075     3.4712 C.3    1 <0>       0.2000
   14 C14       2.7493     1.5422     2.1532 C.ar   1 <0>       0.1200
   15 C15       3.9535     2.2073     2.0233 C.ar   1 <0>      -0.1400
   16 C16       4.2772     2.7875     0.8061 C.ar   1 <0>      -0.0700
   17 C17       3.3733     2.6761    -0.2390 C.ar   1 <0>      -0.1500
   18 C18       2.1878     1.9954    -0.0346 C.ar   1 <0>       0.1100
   19 N19       1.9154     1.4518     1.1354 N.ar   1 <0>      -0.4700
   20 H20      -0.6473    -2.7266     4.9641 H      1 <0>       0.0900
   21 H21      -2.3853    -2.8356     4.5954 H      1 <0>       0.0900
   22 H22      -1.2045    -2.6612     3.2749 H      1 <0>       0.0900
   23 H23      -3.0952    -0.6386     5.9234 H      1 <0>       0.1800
   24 H24      -2.6657     1.9110     5.4692 H      1 <0>       0.1700
   25 H25       0.0333    -1.3389     2.2573 H      1 <0>       0.1200
   26 H26       0.1509     0.3877     1.8409 H      1 <0>       0.1500
   27 H27       1.8867     1.6262     4.1200 H      1 <0>       0.1800
   28 H28       4.6339     2.2747     2.8593 H      1 <0>       0.1500
   29 H29       5.2112     3.3138     0.6756 H      1 <0>       0.1500
   30 H30       3.5924     3.1161    -1.2007 H      1 <0>       0.1500
   31 H31       1.4781     1.9045    -0.8436 H      1 <0>       0.1700
@<TRIPOS>BOND
   1    1    2 1
   2    1   20 1
   3    1   21 1
   4    1   22 1
   5    2    6 1
   6    2    3 1
   7    3    4 2
   8    3   23 1
   9    4    5 1
  10    4   24 1
  11    5    6 2
  12    6    7 1
  13    7    8 1
  14    7   25 1
  15    7   26 1
  16    8   13 1
  17    8    9 am
  18    9   10 2
  19    9   11 1
  20   11   12 2
  21   12   13 1
  22   13   14 1
  23   13   27 1
  24   14   19 ar
  25   14   15 ar
  26   15   16 ar
  27   15   28 1
  28   16   17 ar
  29   16   29 1
  30   17   18 ar
  31   17   30 1
  32   18   19 ar
  33   18   31 1

@<TRIPOS>MOLECULE
ZINC000071274516
  32   34    0    0    0
SMALL
USER_CHARGES
NO_NAME
@<TRIPOS>ATOM
    1 C1       -0.9091    -2.3759     4.6555 C.3    1 <0>       0.0400
    2 N2       -1.3133    -0.9701     4.5738 N.pl3  1 <0>      -0.3800
    3 C3       -2.2368    -0.3432     5.3660 C.2    1 <0>       0.0300
    4 C4       -2.2998     0.9370     4.9527 C.2    1 <0>       0.0100
    5 N5       -1.4382     1.0876     3.9358 N.pl3  1 <0>      -0.4600
    6 H6       -1.2817     1.9124     3.4499 H      1 <0>       0.4600
    7 C7       -0.8400    -0.0494     3.7066 C.cat  1 <0>       0.2600
    8 C8        0.1997    -0.2963     2.6441 C.3    1 <0>       0.1900
    9 N9        1.5362    -0.1301     3.2206 N.am   1 <0>      -0.5600
   10 C10       2.3587    -1.0907     3.6969 C.2    1 <0>       0.3500
   11 S11       1.9934    -2.7630     3.7248 S.2    1 <0>      -0.3200
   12 N12       3.4996    -0.5511     4.1431 N.2    1 <0>      -0.1200
   13 N13       3.5505     0.6760     4.0252 N.2    1 <0>      -0.0500
   14 C14       2.2919     1.1234     3.4070 C.3    1 <0>       0.2000
   15 C15       2.5592     1.7929     2.0836 C.ar   1 <0>       0.1000
   16 C16       3.6966     2.5614     1.9245 C.ar   1 <0>      -0.1300
   17 C17       3.9335     3.1729     0.7027 C.ar   1 <0>      -0.0600
   18 C18       3.0133     2.9874    -0.3174 C.ar   1 <0>      -0.1400
   19 C19       1.8981     2.2046    -0.0844 C.ar   1 <0>       0.1100
   20 N20       1.7077     1.6342     1.0891 N.ar   1 <0>      -0.4900
   21 H21      -0.0183    -2.4623     5.2776 H      1 <0>       0.1200
   22 H22      -1.7170    -2.9613     5.0946 H      1 <0>       0.1200
   23 H23      -0.6914    -2.7501     3.6552 H      1 <0>       0.1300
   24 H24      -2.8059    -0.7894     6.1682 H      1 <0>       0.2300
   25 H25      -2.9330     1.7074     5.3673 H      1 <0>       0.2300
   26 H26       0.0932    -1.3110     2.2603 H      1 <0>       0.1600
   27 H27       0.0639     0.4160     1.8303 H      1 <0>       0.1700
   28 H28       1.7528     1.7942     4.0759 H      1 <0>       0.1700
   29 H29       4.3921     2.6846     2.7416 H      1 <0>       0.1500
   30 H30       4.8138     3.7795     0.5495 H      1 <0>       0.1500
   31 H31       3.1656     3.4489    -1.2819 H      1 <0>       0.1500
   32 H32       1.1763     2.0555    -0.8737 H      1 <0>       0.1700
@<TRIPOS>BOND
   1    1    2 1
   2    1   21 1
   3    1   22 1
   4    1   23 1
   5    2    7 ar
   6    2    3 1
   7    3    4 2
   8    3   24 1
   9    4    5 1
  10    4   25 1
  11    5    6 1
  12    5    7 ar
  13    7    8 1
  14    8    9 1
  15    8   26 1
  16    8   27 1
  17    9   14 1
  18    9   10 am
  19   10   11 2
  20   10   12 1
  21   12   13 2
  22   13   14 1
  23   14   15 1
  24   14   28 1
  25   15   20 ar
  26   15   16 ar
  27   16   17 ar
  28   16   29 1
  29   17   18 ar
  30   17   30 1
  31   18   19 ar
  32   18   31 1
  33   19   20 ar
  34   19   32 1
@<TRIPOS>MOLECULE
ZINC000071274518
  31   33    0    0    0
SMALL
USER_CHARGES
NO_NAME
@<TRIPOS>ATOM
    1 C1        1.4457    -3.8777     4.3327 C.3    1 <0>       0.0600
    2 N2        0.4124    -2.9087     3.9594 N.pl3  1 <0>      -0.4400
    3 C3       -0.9077    -2.9498     4.3191 C.2    1 <0>      -0.0300
    4 C4       -1.4964    -1.8731     3.7643 C.2    1 <0>      -0.0300
    5 N5       -0.5613    -1.1931     3.0844 N.2    1 <0>      -0.4700
    6 C6        0.5855    -1.8048     3.2009 C.2    1 <0>       0.1600
    7 C7        1.8858    -1.3584     2.5836 C.3    1 <0>       0.2200
    8 N8        2.5217    -0.3633     3.4506 N.am   1 <0>      -0.5500
    9 C9        3.4583    -0.5707     4.4023 C.2    1 <0>       0.3600
   10 S10       4.1193    -2.0978     4.8051 S.2    1 <0>      -0.3900
   11 N11       3.7974     0.5855     4.9854 N.2    1 <0>      -0.1400
   12 N12       3.1955     1.5651     4.5378 N.2    1 <0>      -0.0600
   13 C13       2.2894     1.0936     3.4781 C.3    1 <0>       0.1900
   14 C14       2.6475     1.7211     2.1556 C.ar   1 <0>      -0.0500
   15 C15       1.8220     1.5703     1.0519 C.ar   1 <0>      -0.1500
   16 C16       2.1829     2.1603    -0.1447 C.ar   1 <0>       0.1100
   17 N17       3.2970     2.8589    -0.2433 N.ar   1 <0>      -0.4700
   18 C18       4.1059     3.0231     0.7852 C.ar   1 <0>       0.1100
   19 C19       3.8073     2.4677     2.0151 C.ar   1 <0>      -0.1400
   20 H20       1.8704    -3.6023     5.2980 H      1 <0>       0.0900
   21 H21       1.0040    -4.8719     4.4004 H      1 <0>       0.0900
   22 H22       2.2315    -3.8800     3.5773 H      1 <0>       0.1000
   23 H23      -1.3854    -3.7014     4.9301 H      1 <0>       0.1800
   24 H24      -2.5388    -1.6043     3.8516 H      1 <0>       0.1800
   25 H25       2.5476    -2.2170     2.4697 H      1 <0>       0.1300
   26 H26       1.6913    -0.9173     1.6060 H      1 <0>       0.1300
   27 H27       1.2523     1.3064     3.7370 H      1 <0>       0.1800
   28 H28       0.9086     0.9988     1.1261 H      1 <0>       0.1500
   29 H29       1.5454     2.0476    -1.0091 H      1 <0>       0.1700
   30 H30       5.0100     3.6017     0.6662 H      1 <0>       0.1700
   31 H31       4.4735     2.6061     2.8538 H      1 <0>       0.1400
@<TRIPOS>BOND
   1    1    2 1
   2    1   20 1
   3    1   21 1
   4    1   22 1
   5    2    6 1
   6    2    3 1
   7    3    4 2
   8    3   23 1
   9    4    5 1
  10    4   24 1
  11    5    6 2
  12    6    7 1
  13    7    8 1
  14    7   25 1
  15    7   26 1
  16    8   13 1
  17    8    9 am
  18    9   10 2
  19    9   11 1
  20   11   12 2
  21   12   13 1
  22   13   14 1
  23   13   27 1
  24   14   19 ar
  25   14   15 ar
  26   15   16 ar
  27   15   28 1
  28   16   17 ar
  29   16   29 1
  30   17   18 ar
  31   18   19 ar
  32   18   30 1
  33   19   31 1

@<TRIPOS>MOLECULE
ZINC000071274518
  32   34    0    0    0
SMALL
USER_CHARGES
NO_NAME
@<TRIPOS>ATOM
    1 C1        1.5662    -3.4213     4.5912 C.3    1 <0>       0.0400
    2 N2        0.4600    -2.6213     4.0599 N.pl3  1 <0>      -0.3800
    3 C3       -0.8611    -2.7348     4.3999 C.2    1 <0>       0.0400
    4 C4       -1.5292    -1.8131     3.6804 C.2    1 <0>       0.0200
    5 N5       -0.6404    -1.1548     2.9217 N.pl3  1 <0>      -0.4600
    6 H6       -0.8514    -0.4363     2.3052 H      1 <0>       0.4600
    7 C7        0.5538    -1.6301     3.1475 C.cat  1 <0>       0.2500
    8 C8        1.8257    -1.1576     2.4917 C.3    1 <0>       0.1900
    9 N9        2.4692    -0.1527     3.3416 N.am   1 <0>      -0.5800
   10 C10       3.4626    -0.3392     4.2386 C.2    1 <0>       0.3500
   11 S11       4.2010    -1.8459     4.5783 S.2    1 <0>      -0.3100
   12 N12       3.7886     0.8197     4.8237 N.2    1 <0>      -0.1200
   13 N13       3.1272     1.7825     4.4263 N.2    1 <0>      -0.0400
   14 C14       2.1842     1.2935     3.4076 C.3    1 <0>       0.1900
   15 C15       2.4471     1.9554     2.0795 C.ar   1 <0>      -0.0600
   16 C16       1.6054     1.7384     0.9994 C.ar   1 <0>      -0.1700
   17 C17       1.8782     2.3625    -0.2031 C.ar   1 <0>       0.1200
   18 N18       2.9243     3.1555    -0.3294 N.ar   1 <0>      -0.4600
   19 C19       3.7460     3.3848     0.6761 C.ar   1 <0>       0.1300
   20 C20       3.5333     2.8004     1.9104 C.ar   1 <0>      -0.1400
   21 H21       2.0311    -2.8916     5.4228 H      1 <0>       0.1200
   22 H22       1.1857    -4.3816     4.9394 H      1 <0>       0.1300
   23 H23       2.3050    -3.5860     3.8069 H      1 <0>       0.1300
   24 H24      -1.2859    -3.4300     5.1088 H      1 <0>       0.2300
   25 H25      -2.5941    -1.6352     3.7092 H      1 <0>       0.2300
   26 H26       2.4998    -2.0032     2.3547 H      1 <0>       0.1600
   27 H27       1.5928    -0.7179     1.5219 H      1 <0>       0.1500
   28 H28       1.1550     1.4621     3.7247 H      1 <0>       0.1700
   29 H29       0.7475     1.0895     1.0963 H      1 <0>       0.1300
   30 H30       1.2274     2.1987    -1.0493 H      1 <0>       0.1700
   31 H31       4.5927     4.0402     0.5347 H      1 <0>       0.1700
   32 H32       4.2096     2.9923     2.7302 H      1 <0>       0.1500
@<TRIPOS>BOND
   1    1    2 1
   2    1   21 1
   3    1   22 1
   4    1   23 1
   5    2    7 ar
   6    2    3 1
   7    3    4 2
   8    3   24 1
   9    4    5 1
  10    4   25 1
  11    5    6 1
  12    5    7 ar
  13    7    8 1
  14    8    9 1
  15    8   26 1
  16    8   27 1
  17    9   14 1
  18    9   10 am
  19   10   11 2
  20   10   12 1
  21   12   13 2
  22   13   14 1
  23   14   15 1
  24   14   28 1
  25   15   20 ar
  26   15   16 ar
  27   16   17 ar
  28   16   29 1
  29   17   18 ar
  30   17   30 1
  31   18   19 ar
  32   19   20 ar
  33   19   31 1
  34   20   32 1
@<TRIPOS>MOLECULE
ZINC000092036800
  43   45    0    0    0
SMALL
USER_CHARGES
NO_NAME
@<TRIPOS>ATOM
    1 C1       -0.0173     1.4248     0.0099 C.3    1 <0>       0.0300
    2 O2        0.0021    -0.0041     0.0020 O.3    1 <0>      -0.3500
    3 C3        0.6734    -0.5824     1.1231 C.3    1 <0>       0.0800
    4 H4        1.3559     0.1123     1.6127 H      1 <0>       0.0700
    5 C5       -0.2684    -1.3111     2.0972 C.3    1 <0>      -0.2000
    6 C6       -0.0414    -2.5751     1.2501 C.3    1 <0>       0.1000
    7 H7        0.0673    -3.4840     1.8419 H      1 <0>       0.0600
    8 O8       -0.9730    -2.7200     0.1763 O.3    1 <0>      -0.5300
    9 C9        1.2980    -1.9517     0.8265 C.3    1 <0>      -0.0700
   10 C10       1.6290    -2.1653    -0.6495 C.3    1 <0>      -0.1000
   11 C11       2.0317    -3.6286    -0.8668 C.3    1 <0>       0.1100
   12 N12       3.0931    -3.9734     0.0882 N.am   1 <0>      -0.6000
   13 C13       4.2692    -4.4681    -0.3461 C.2    1 <0>       0.6000
   14 O14       4.4576    -4.6318    -1.5362 O.2    1 <0>      -0.5200
   15 C15       5.3270    -4.8105     0.6216 C.2    1 <0>      -0.2500
   16 C16       5.5535    -6.0085     1.2543 C.2    1 <0>       0.0200
   17 C17       4.7535    -7.2764     1.1013 C.3    1 <0>      -0.0800
   18 O18       6.6233    -5.8263     2.0318 O.3    1 <0>       0.1000
   19 N19       7.0736    -4.7088     1.9650 N.2    1 <0>      -0.3500
   20 C20       6.4046    -3.9557     1.1431 C.2    1 <0>       0.0500
   21 C21       6.6708    -2.5116     0.8039 C.3    1 <0>      -0.0800
   22 C22       2.8544    -3.7709     1.5233 C.3    1 <0>       0.1100
   23 C23       2.4567    -2.3086     1.7558 C.3    1 <0>      -0.1100
   24 H24       1.0053     1.8021     0.0021 H      1 <0>       0.0400
   25 H25      -0.5445     1.7859    -0.8732 H      1 <0>       0.0900
   26 H26      -0.5275     1.7763     0.9067 H      1 <0>       0.0400
   27 H27       0.1261    -1.3881     3.1104 H      1 <0>       0.1000
   28 H28      -1.2947    -0.9449     2.0683 H      1 <0>       0.0800
   29 H29      -1.8337    -3.0682     0.4465 H      1 <0>       0.3800
   30 H30       0.7535    -1.9342    -1.2564 H      1 <0>       0.1000
   31 H31       2.4545    -1.5137    -0.9358 H      1 <0>       0.0600
   32 H32       1.1685    -4.2735    -0.7024 H      1 <0>       0.0700
   33 H33       2.3994    -3.7591    -1.8846 H      1 <0>       0.0900
   34 H34       5.1719    -7.8746     0.2919 H      1 <0>       0.1000
   35 H35       4.7921    -7.8448     2.0306 H      1 <0>       0.0900
   36 H36       3.7177    -7.0269     0.8708 H      1 <0>       0.0900
   37 H37       7.3498    -2.4574    -0.0470 H      1 <0>       0.0900
   38 H38       5.7319    -2.0187     0.5516 H      1 <0>       0.0800
   39 H39       7.1231    -2.0143     1.6620 H      1 <0>       0.0800
   40 H40       2.0492    -4.4260     1.8558 H      1 <0>       0.0700
   41 H41       3.7642    -3.9951     2.0802 H      1 <0>       0.0900
   42 H42       3.3073    -1.6613     1.5429 H      1 <0>       0.0800
   43 H43       2.1467    -2.1757     2.7923 H      1 <0>       0.0800
@<TRIPOS>BOND
   1    1    2 1
   2    1   24 1
   3    1   25 1
   4    1   26 1
   5    2    3 1
   6    3    4 1
   7    3    9 1
   8    3    5 1
   9    5    6 1
  10    5   27 1
  11    5   28 1
  12    6    7 1
  13    6    8 1
  14    6    9 1
  15    8   29 1
  16    9   23 1
  17    9   10 1
  18   10   11 1
  19   10   30 1
  20   10   31 1
  21   11   12 1
  22   11   32 1
  23   11   33 1
  24   12   13 am
  25   12   22 1
  26   13   14 2
  27   13   15 1
  28   15   20 1
  29   15   16 2
  30   16   17 1
  31   16   18 1
  32   17   34 1
  33   17   35 1
  34   17   36 1
  35   18   19 1
  36   19   20 2
  37   20   21 1
  38   21   37 1
  39   21   38 1
  40   21   39 1
  41   22   23 1
  42   22   40 1
  43   22   41 1
  44   23   42 1
  45   23   43 1
@<TRIPOS>MOLECULE
ZINC000094867172
44    45    1     0     0
SMALL
USER_CHARGES
@<TRIPOS>ATOM
1      C1      0.0709    1.4695    0.4614 C.3      1 ZINC000094867172    0.0700
2      N2      0.0284    0.0053    0.4431 N.am     1 ZINC000094867172   -0.6100
3      C3     -1.2651   -0.6370    0.6322 C.3      1 ZINC000094867172    0.1000
4      C4     -1.2531   -2.0583    0.0663 C.3      1 ZINC000094867172    0.0900
5      N5     -0.0265   -2.7278    0.5312 N.am     1 ZINC000094867172   -0.6200
6      C6     -0.0794   -3.8325    1.3015 C.2      1 ZINC000094867172    0.5300
7      O7      0.9417   -4.4190    1.5915 O.2      1 ZINC000094867172   -0.5000
8      C8     -1.4075   -4.3388    1.8024 C.3      1 ZINC000094867172   -0.1100
9      H9     -1.9728   -3.5121    2.2324 H        1 ZINC000094867172    0.0800
10     C10    -2.1946   -4.9439    0.6383 C.3      1 ZINC000094867172   -0.1100
11     C11    -1.4010   -6.1045    0.0347 C.3      1 ZINC000094867172   -0.1200
12     C12    -1.1687   -7.1740    1.1038 C.3      1 ZINC000094867172   -0.0900
13     C13    -0.3816   -6.5689    2.2679 C.3      1 ZINC000094867172   -0.1700
14     H14     0.5790   -6.2027    1.9056 H        1 ZINC000094867172    0.1000
15     C15    -0.1528   -7.6224    3.3210 C.2      1 ZINC000094867172    0.5000
16     O16     0.4640   -8.6371    3.0443 O.co2    1 ZINC000094867172   -0.7100
17     O17    -0.5844   -7.4600    4.4496 O.co2    1 ZINC000094867172   -0.7100
18     C18    -1.1752   -5.4084    2.8715 C.3      1 ZINC000094867172   -0.0700
19     C19     1.2584   -2.1424    0.1204 C.3      1 ZINC000094867172    0.1600
20     C20     2.3757   -2.6773    1.0184 C.3      1 ZINC000094867172   -0.1300
21     C21     1.5487   -2.5138   -1.3352 C.3      1 ZINC000094867172   -0.1500
22     C22     1.1761   -0.6461    0.2492 C.2      1 ZINC000094867172    0.5200
23     O23     2.2018   -0.0024    0.1820 O.2      1 ZINC000094867172   -0.5400
24     H24     1.0959    1.8052    0.3038 H        1 ZINC000094867172    0.0900
25     H25    -0.5657    1.8614   -0.3319 H        1 ZINC000094867172    0.0600
26     H26    -0.2857    1.8314    1.4257 H        1 ZINC000094867172    0.0600
27     H27    -1.4936   -0.6768    1.6973 H        1 ZINC000094867172    0.0700
28     H28    -2.0328   -0.0545    0.1229 H        1 ZINC000094867172    0.0900
29     H29    -2.1272   -2.6034    0.4225 H        1 ZINC000094867172    0.1200
30     H30    -1.2612   -2.0205   -1.0230 H        1 ZINC000094867172    0.0800
31     H31    -3.1552   -5.3102    1.0006 H        1 ZINC000094867172    0.0700
32     H32    -2.3601   -4.1820   -0.1234 H        1 ZINC000094867172    0.0600
33     H33    -1.9618   -6.5356   -0.7947 H        1 ZINC000094867172    0.0600
34     H34    -0.4405   -5.7382   -0.3276 H        1 ZINC000094867172    0.0600
35     H35    -2.1293   -7.5403    1.4661 H        1 ZINC000094867172    0.0500
36     H36    -0.6034   -8.0008    0.6738 H        1 ZINC000094867172    0.0600
37     H37    -0.6144   -4.9773    3.7009 H        1 ZINC000094867172    0.0600
38     H38    -2.1357   -5.7746    3.2338 H        1 ZINC000094867172    0.0600
39     H39     2.5487   -3.7300    0.7950 H        1 ZINC000094867172    0.1000
40     H40     3.2899   -2.1122    0.8365 H        1 ZINC000094867172    0.0600
41     H41     2.0844   -2.5706    2.0633 H        1 ZINC000094867172    0.0600
42     H42     0.7540   -2.1284   -1.9740 H        1 ZINC000094867172    0.0600
43     H43     2.5013   -2.0791   -1.6380 H        1 ZINC000094867172    0.0800
44     H44     1.5976   -3.5985   -1.4305 H        1 ZINC000094867172    0.0800
@<TRIPOS>BOND
1     1     2     1
2     1     24    1
3     1     25    1
4     1     26    1
5     2     22    am
6     2     3     1
7     3     4     1
8     3     27    1
9     3     28    1
10    4     5     1
11    4     29    1
12    4     30    1
13    5     6     am
14    5     19    1
15    6     7     2
16    6     8     1
17    8     9     1
18    8     18    1
19    8     10    1
20    10    11    1
21    10    31    1
22    10    32    1
23    11    12    1
24    11    33    1
25    11    34    1
26    12    13    1
27    12    35    1
28    12    36    1
29    13    14    1
30    13    15    1
31    13    18    1
32    15    16    ar
33    15    17    ar
34    18    37    1
35    18    38    1
36    19    20    1
37    19    21    1
38    19    22    1
39    20    39    1
40    20    40    1
41    20    41    1
42    21    42    1
43    21    43    1
44    21    44    1
45    22    23    2
@<TRIPOS>SUBSTRUCTURE
1   ZINC000094867172 1     RESIDUE    1   A     ZIN   1
@<TRIPOS>MOLECULE
ZINC000095993803
  38   39    0    0    0
SMALL
USER_CHARGES
NO_NAME
@<TRIPOS>ATOM
    1 C1       -2.6328    -2.8903    -0.1811 C.3    1 <0>      -0.1200
    2 C2       -1.3159    -2.1606    -0.2479 C.2    1 <0>      -0.0400
    3 C3       -1.2829    -0.7934    -0.2667 C.2    1 <0>       0.0500
    4 N4       -2.4721    -0.0551    -0.2236 N.am   1 <0>      -1.0400
    5 S5       -2.4356     1.5867    -0.4365 S.o2   1 <0>       2.7900
    6 O6       -3.7856     2.0277    -0.3885 O.2    1 <0>      -0.9800
    7 O7       -1.4251     2.0815     0.4313 O.2    1 <0>      -0.9200
    8 N8       -1.9061     1.8693    -1.9799 N.am   1 <0>      -1.0100
    9 C9       -0.5258     2.1972    -2.3657 C.3    1 <0>       0.1300
   10 C10      -0.5022     2.3456    -3.9016 C.3    1 <0>      -0.1300
   11 C11      -1.7491     1.5373    -4.3479 C.3    1 <0>      -0.1000
   12 H12      -1.5240     0.4724    -4.4065 H      1 <0>       0.0800
   13 C13      -2.2892     2.0548    -5.6826 C.3    1 <0>      -0.1400
   14 C14      -2.7393     1.8273    -3.1954 C.3    1 <0>       0.1200
   15 C15      -0.0350    -0.1352    -0.3297 C.2    1 <0>       0.4700
   16 O16       0.0123     1.0845    -0.3468 O.2    1 <0>      -0.4900
   17 N17       1.1029    -0.8545    -0.3703 N.am   1 <0>      -0.4900
   18 C18       2.3936    -0.1645    -0.4355 C.3    1 <0>       0.0600
   19 C19       1.0676    -2.2141    -0.3510 C.2    1 <0>       0.1000
   20 C20      -0.1099    -2.8757    -0.2857 C.2    1 <0>      -0.2000
   21 H21      -2.4579    -3.9633    -0.2589 H      1 <0>       0.0800
   22 H22      -3.1226    -2.6698     0.7673 H      1 <0>       0.0800
   23 H23      -3.2703    -2.5654    -1.0034 H      1 <0>       0.0700
   24 H24      -3.3172    -0.5055    -0.0691 H      1 <0>       0.4200
   25 H25      -0.2229     3.1341    -1.8980 H      1 <0>       0.0700
   26 H26       0.1451     1.3942    -2.0605 H      1 <0>       0.0900
   27 H27      -0.5980     3.3926    -4.1894 H      1 <0>       0.0700
   28 H28       0.4074     1.9120    -4.3170 H      1 <0>       0.0800
   29 H29      -1.5278     1.9359    -6.4534 H      1 <0>       0.0600
   30 H30      -3.1780     1.4878    -5.9593 H      1 <0>       0.0600
   31 H31      -2.5467     3.1096    -5.5860 H      1 <0>       0.0600
   32 H32      -3.4813     1.0320    -3.1235 H      1 <0>       0.0700
   33 H33      -3.2274     2.7900    -3.3478 H      1 <0>       0.0700
   34 H34       2.7586     0.0196     0.5749 H      1 <0>       0.0800
   35 H35       3.1104    -0.7850    -0.9734 H      1 <0>       0.0900
   36 H36       2.2721     0.7851    -0.9566 H      1 <0>       0.1000
   37 H37       1.9917    -2.7720    -0.3844 H      1 <0>       0.1600
   38 H38      -0.1221    -3.9555    -0.2712 H      1 <0>       0.1500
@<TRIPOS>BOND
   1    1    2 1
   2    1   21 1
   3    1   22 1
   4    1   23 1
   5    2   20 1
   6    2    3 2
   7    3    4 1
   8    3   15 1
   9    4    5 am
  10    4   24 1
  11    5    6 2
  12    5    7 2
  13    5    8 am
  14    8   14 1
  15    8    9 1
  16    9   10 1
  17    9   25 1
  18    9   26 1
  19   10   11 1
  20   10   27 1
  21   10   28 1
  22   11   12 1
  23   11   13 1
  24   11   14 1
  25   13   29 1
  26   13   30 1
  27   13   31 1
  28   14   32 1
  29   14   33 1
  30   15   16 2
  31   15   17 am
  32   17   18 1
  33   17   19 1
  34   18   34 1
  35   18   35 1
  36   18   36 1
  37   19   20 2
  38   19   37 1
  39   20   38 1
@<TRIPOS>MOLECULE
ZINC000097814274
46    47    1     0     0
SMALL
USER_CHARGES
@<TRIPOS>ATOM
1      C1     -0.8677   -0.0454    3.1439 C.3      1 ZINC000097814274   -0.1700
2      C2     -0.6921   -0.7469    1.7956 C.3      1 ZINC000097814274    0.1700
3      H3     -1.3978   -0.3346    1.0745 H        1 ZINC000097814274    0.0600
4      C4     -0.9454   -2.2486    1.9612 C.3      1 ZINC000097814274   -0.1300
5      C5     -0.6333   -2.9629    0.6442 C.3      1 ZINC000097814274   -0.1200
6      C6      0.8409   -2.7582    0.2879 C.3      1 ZINC000097814274   -0.1300
7      C7      1.1145   -1.2622    0.1033 C.3      1 ZINC000097814274    0.1700
8      H8      0.5578   -0.8924   -0.7577 H        1 ZINC000097814274    0.0600
9      C9      2.6116   -1.0383   -0.1193 C.3      1 ZINC000097814274   -0.1600
10     N10     0.6805   -0.5466    1.3113 N.am     1 ZINC000097814274   -0.6900
11     C11     1.5270    0.2736    1.9649 C.2      1 ZINC000097814274    0.7500
12     O12     2.3964   -0.1917    2.6763 O.2      1 ZINC000097814274   -0.5600
13     N13     1.4098    1.6094    1.8300 N.am     1 ZINC000097814274   -0.6200
14     C14     0.5993    2.1843    0.7477 C.3      1 ZINC000097814274    0.1200
15     C15    -0.4161    3.1571    1.3555 C.3      1 ZINC000097814274   -0.1300
16     C16     0.3222    4.1932    2.2062 C.3      1 ZINC000097814274    0.0800
17     O17    -0.6190    5.1217    2.7486 O.3      1 ZINC000097814274   -0.3500
18     C18    -0.0881    6.4317    2.9585 C.3      1 ZINC000097814274    0.0000
19     C19    -1.1608    7.3228    3.5297 C.2      1 ZINC000097814274    0.5000
20     O20    -2.2765    6.8773    3.7378 O.co2    1 ZINC000097814274   -0.6800
21     O21    -0.9130    8.4892    3.7838 O.co2    1 ZINC000097814274   -0.7000
22     C22     1.0581    3.4877    3.3476 C.3      1 ZINC000097814274   -0.1600
23     C23     2.0853    2.5185    2.7660 C.3      1 ZINC000097814274    0.1300
24     H24    -0.6900    1.0233    3.0233 H        1 ZINC000097814274    0.0700
25     H25    -1.8826   -0.2061    3.5076 H        1 ZINC000097814274    0.0700
26     H26    -0.1557   -0.4534    3.8613 H        1 ZINC000097814274    0.0600
27     H27    -0.3028   -2.6413    2.7492 H        1 ZINC000097814274    0.0700
28     H28    -1.9896   -2.4143    2.2264 H        1 ZINC000097814274    0.0700
29     H29    -0.8363   -4.0284    0.7520 H        1 ZINC000097814274    0.0600
30     H30    -1.2588   -2.5526   -0.1485 H        1 ZINC000097814274    0.0600
31     H31     1.4667   -3.1460    1.0916 H        1 ZINC000097814274    0.0700
32     H32     1.0682   -3.2865   -0.6380 H        1 ZINC000097814274    0.0700
33     H33     2.9228   -1.5445   -1.0331 H        1 ZINC000097814274    0.0700
34     H34     2.8096    0.0297   -0.2102 H        1 ZINC000097814274    0.0600
35     H35     3.1689   -1.4405    0.7267 H        1 ZINC000097814274    0.0700
36     H36     1.2456    2.7185    0.0514 H        1 ZINC000097814274    0.0700
37     H37     0.0727    1.3873    0.2227 H        1 ZINC000097814274    0.0900
38     H38    -0.9589    3.6624    0.5567 H        1 ZINC000097814274    0.0800
39     H39    -1.1182    2.6062    1.9813 H        1 ZINC000097814274    0.0800
40     H40     1.0419    4.7266    1.5852 H        1 ZINC000097814274    0.0500
41     H41     0.7483    6.3775    3.6553 H        1 ZINC000097814274    0.0400
42     H42     0.2562    6.8407    2.0086 H        1 ZINC000097814274    0.0400
43     H43     1.5645    4.2282    3.9666 H        1 ZINC000097814274    0.0800
44     H44     0.3421    2.9337    3.9546 H        1 ZINC000097814274    0.0700
45     H45     2.5415    1.9429    3.5715 H        1 ZINC000097814274    0.0900
46     H46     2.8541    3.0775    2.2327 H        1 ZINC000097814274    0.0700
@<TRIPOS>BOND
1     1     2     1
2     1     24    1
3     1     25    1
4     1     26    1
5     2     3     1
6     2     10    1
7     2     4     1
8     4     5     1
9     4     27    1
10    4     28    1
11    5     6     1
12    5     29    1
13    5     30    1
14    6     7     1
15    6     31    1
16    6     32    1
17    7     8     1
18    7     9     1
19    7     10    1
20    9     33    1
21    9     34    1
22    9     35    1
23    10    11    am
24    11    12    2
25    11    13    am
26    13    23    1
27    13    14    1
28    14    15    1
29    14    36    1
30    14    37    1
31    15    16    1
32    15    38    1
33    15    39    1
34    16    17    1
35    16    22    1
36    16    40    1
37    17    18    1
38    18    19    1
39    18    41    1
40    18    42    1
41    19    20    ar
42    19    21    ar
43    22    23    1
44    22    43    1
45    22    44    1
46    23    45    1
47    23    46    1
@<TRIPOS>SUBSTRUCTURE
1   ZINC000097814274 1     RESIDUE    1   A     ZIN   1
@<TRIPOS>MOLECULE
ZINC000008844438
36    37    1     0     0
SMALL
USER_CHARGES
@<TRIPOS>ATOM
1      C1     -0.0378    1.7580    0.3673 C.3      1 ZINC000008844438   -0.1200
2      C2     -0.0438    0.2572    0.2306 C.ar     1 ZINC000008844438   -0.0600
3      C3     -0.0994   -0.3218   -1.0240 C.ar     1 ZINC000008844438   -0.1300
4      C4     -0.1046   -1.6985   -1.1540 C.ar     1 ZINC000008844438   -0.0600
5      C5     -0.1648   -2.3250   -2.5233 C.3      1 ZINC000008844438   -0.1200
6      C6     -0.0542   -2.4999   -0.0304 C.ar     1 ZINC000008844438   -0.1400
7      C7      0.0018   -1.9216    1.2313 C.ar     1 ZINC000008844438    0.1400
8      N8      0.0533   -2.7292    2.3698 N.am     1 ZINC000008844438   -1.0500
9      S9      1.1520   -2.4052    3.5657 S.o2     1 ZINC000008844438    2.6200
10     O10     0.9506   -1.0304    3.8636 O.2      1 ZINC000008844438   -0.9300
11     O11     0.9130   -3.4091    4.5426 O.2      1 ZINC000008844438   -0.9400
12     C12     2.7664   -2.6558    2.7773 C.3      1 ZINC000008844438   -0.5900
13     H13     2.8233   -3.6660    2.3718 H        1 ZINC000008844438    0.1600
14     C14     2.9530   -1.6321    1.6437 C.3      1 ZINC000008844438   -0.1100
15     C15     4.4506   -1.6798    1.2450 C.3      1 ZINC000008844438   -0.5700
16     S16     5.2935   -1.7639    2.8704 S.o2     1 ZINC000008844438    2.4000
17     O17     6.3375   -2.7261    2.8102 O.2      1 ZINC000008844438   -0.9300
18     O18     5.5704   -0.4467    3.3260 O.2      1 ZINC000008844438   -0.9200
19     C19     3.8877   -2.4500    3.8151 C.3      1 ZINC000008844438   -0.5900
20     C20     0.0121   -0.5383    1.3581 C.ar     1 ZINC000008844438   -0.1600
21     H21     0.9900    2.1204    0.3497 H        1 ZINC000008844438    0.0800
22     H22    -0.5932    2.2004   -0.4597 H        1 ZINC000008844438    0.0700
23     H23    -0.5060    2.0388    1.3107 H        1 ZINC000008844438    0.0700
24     H24    -0.1393    0.3027   -1.9043 H        1 ZINC000008844438    0.1300
25     H25     0.8473   -2.4756   -2.8988 H        1 ZINC000008844438    0.0700
26     H26    -0.6760   -3.2857   -2.4611 H        1 ZINC000008844438    0.0700
27     H27    -0.7094   -1.6668   -3.2003 H        1 ZINC000008844438    0.0700
28     H28    -0.0586   -3.5751   -0.1326 H        1 ZINC000008844438    0.1300
29     H29    -0.5544   -3.4797    2.4599 H        1 ZINC000008844438    0.4300
30     H30     2.3308   -1.9022    0.7905 H        1 ZINC000008844438    0.1200
31     H31     2.6920   -0.6339    1.9954 H        1 ZINC000008844438    0.1100
32     H32     4.6648   -2.5687    0.6516 H        1 ZINC000008844438    0.1400
33     H33     4.7368   -0.7760    0.7071 H        1 ZINC000008844438    0.1500
34     H34     3.5691   -1.7463    4.5842 H        1 ZINC000008844438    0.1400
35     H35     4.1632   -3.4040    4.2645 H        1 ZINC000008844438    0.1600
36     H36     0.0556   -0.0855    2.3376 H        1 ZINC000008844438    0.1600
@<TRIPOS>BOND
1     1     2     1
2     1     21    1
3     1     22    1
4     1     23    1
5     2     20    ar
6     2     3     ar
7     3     4     ar
8     3     24    1
9     4     5     1
10    4     6     ar
11    5     25    1
12    5     26    1
13    5     27    1
14    6     7     ar
15    6     28    1
16    7     8     1
17    7     20    ar
18    8     9     am
19    8     29    1
20    9     10    2
21    9     11    2
22    9     12    1
23    12    13    1
24    12    19    1
25    12    14    1
26    14    15    1
27    14    30    1
28    14    31    1
29    15    16    1
30    15    32    1
31    15    33    1
32    16    17    2
33    16    18    2
34    16    19    1
35    19    34    1
36    19    35    1
37    20    36    1
@<TRIPOS>SUBSTRUCTURE
1   ZINC000008844438 1     RESIDUE    1   A     ZIN   1
@<TRIPOS>MOLECULE
ZINC000017032341
  36   38    0    0    0
SMALL
USER_CHARGES
NO_NAME
@<TRIPOS>ATOM
    1 C1       -0.0184     1.5028     0.0103 C.3    1 <0>      -0.0700
    2 C2        0.0021    -0.0041     0.0020 C.2    1 <0>      -0.2500
    3 C3       -1.0756    -0.7679     0.0030 C.2    1 <0>      -0.0500
    4 C4       -0.7809    -2.1898    -0.0061 C.2    1 <0>      -0.3000
    5 C5        0.5786    -2.4411    -0.0139 C.2    1 <0>       0.0900
    6 N6        1.0191    -3.7574    -0.0228 N.pl3  1 <0>      -0.5400
    7 C7        0.1529    -4.7810    -0.0238 C.2    1 <0>       0.5100
    8 S8        0.7606    -6.3815    -0.0349 S.2    1 <0>      -0.7100
    9 N9       -1.1764    -4.5901    -0.0160 N.am   1 <0>      -0.5200
   10 C10      -2.0732    -5.7485    -0.0167 C.3    1 <0>       0.1000
   11 C11      -2.3779    -6.1584     1.4256 C.3    1 <0>       0.0600
   12 N12      -3.2772    -7.3199     1.4249 N.3    1 <0>      -0.5200
   13 C13      -4.3901    -7.1241     0.4845 C.3    1 <0>       0.0100
   14 C14      -5.2669    -8.3791     0.4714 C.3    1 <0>       0.0700
   15 O15      -5.7220    -8.6504     1.7998 O.3    1 <0>      -0.3900
   16 C16      -4.6641    -8.8471     2.7419 C.3    1 <0>       0.0700
   17 C17      -3.7811    -7.5968     2.7779 C.3    1 <0>       0.0200
   18 C18      -1.6955    -3.3479    -0.0081 C.2    1 <0>       0.5600
   19 O19      -2.9016    -3.1826    -0.0014 O.2    1 <0>      -0.5500
   20 S20       1.4589    -0.9783    -0.0177 S.3    1 <0>       0.1800
   21 H21       1.0042     1.8801     0.0026 H      1 <0>       0.0600
   22 H22      -0.5455     1.8639    -0.8728 H      1 <0>       0.0700
   23 H23      -0.5286     1.8543     0.9071 H      1 <0>       0.0700
   24 H24      -2.0806    -0.3724     0.0099 H      1 <0>       0.1400
   25 H25      -3.0020    -5.4886    -0.5245 H      1 <0>       0.0800
   26 H26      -1.5946    -6.5782    -0.5368 H      1 <0>       0.1300
   27 H27      -1.4491    -6.4182     1.9334 H      1 <0>       0.0900
   28 H28      -2.8566    -5.3286     1.9457 H      1 <0>       0.0300
   29 H29      -4.9858    -6.2672     0.7989 H      1 <0>       0.0400
   30 H30      -3.9945    -6.9461    -0.5155 H      1 <0>       0.0900
   31 H31      -6.1248    -8.2169    -0.1812 H      1 <0>       0.1000
   32 H32      -4.6855    -9.2255     0.1059 H      1 <0>       0.0600
   33 H33      -5.0859    -9.0234     3.7314 H      1 <0>       0.1000
   34 H34      -4.0651    -9.7071     2.4423 H      1 <0>       0.0600
   35 H35      -2.9411    -7.7638     3.4521 H      1 <0>       0.0900
   36 H36      -4.3671    -6.7474     3.1290 H      1 <0>       0.0400
@<TRIPOS>BOND
   1    1    2 1
   2    1   21 1
   3    1   22 1
   4    1   23 1
   5    2   20 1
   6    2    3 2
   7    3    4 1
   8    3   24 1
   9    4   18 1
  10    4    5 2
  11    5    6 1
  12    5   20 1
  13    6    7 1
  14    7    8 2
  15    7    9 am
  16    9   10 1
  17    9   18 am
  18   10   11 1
  19   10   25 1
  20   10   26 1
  21   11   12 1
  22   11   27 1
  23   11   28 1
  24   12   17 1
  25   12   13 1
  26   13   14 1
  27   13   29 1
  28   13   30 1
  29   14   15 1
  30   14   31 1
  31   14   32 1
  32   15   16 1
  33   16   17 1
  34   16   33 1
  35   16   34 1
  36   17   35 1
  37   17   36 1
  38   18   19 2

@<TRIPOS>MOLECULE
ZINC000017032341
  37   39    0    0    0
SMALL
USER_CHARGES
NO_NAME
@<TRIPOS>ATOM
    1 C1       -0.0184     1.5028     0.0103 C.3    1 <0>      -0.0800
    2 C2        0.0021    -0.0041     0.0020 C.2    1 <0>      -0.1900
    3 C3       -1.0756    -0.7679     0.0030 C.2    1 <0>      -0.0600
    4 C4       -0.7809    -2.1898    -0.0061 C.2    1 <0>      -0.2000
    5 C5        0.5786    -2.4411    -0.0139 C.2    1 <0>       0.0200
    6 N6        1.0191    -3.7574    -0.0228 N.am   1 <0>      -0.5500
    7 C7        0.1529    -4.7810    -0.0243 C.2    1 <0>       0.5300
    8 S8        0.7606    -6.3815    -0.0359 S.2    1 <0>      -0.5200
    9 N9       -1.1764    -4.5901    -0.0165 N.am   1 <0>      -0.5000
   10 C10      -2.0732    -5.7485    -0.0176 C.3    1 <0>       0.0900
   11 C11      -2.3780    -6.1589     1.4244 C.3    1 <0>       0.0500
   12 N12      -3.2773    -7.3205     1.4233 N.3    1 <0>      -0.5200
   13 C13      -4.3901    -7.1243     0.4828 C.3    1 <0>       0.0100
   14 C14      -5.2670    -8.3793     0.4693 C.3    1 <0>       0.0600
   15 O15      -5.7221    -8.6511     1.7975 O.3    1 <0>      -0.3800
   16 C16      -4.6643    -8.8481     2.7396 C.3    1 <0>       0.0600
   17 C17      -3.7813    -7.5979     2.7762 C.3    1 <0>       0.0200
   18 C18      -1.6955    -3.3479    -0.0081 C.2    1 <0>       0.5700
   19 O19      -2.9016    -3.1826    -0.0014 O.2    1 <0>      -0.4800
   20 S20       1.4589    -0.9783    -0.0177 S.3    1 <0>       0.2700
   21 H21       1.0042     1.8801     0.0026 H      1 <0>       0.0700
   22 H22      -0.5455     1.8639    -0.8728 H      1 <0>       0.0900
   23 H23      -0.5286     1.8543     0.9071 H      1 <0>       0.0900
   24 H24      -2.0806    -0.3724     0.0099 H      1 <0>       0.1600
   25 H25       1.9716    -3.9403    -0.0283 H      1 <0>       0.4500
   26 H26      -3.0020    -5.4884    -0.5254 H      1 <0>       0.1100
   27 H27      -1.5946    -6.5780    -0.5380 H      1 <0>       0.1400
   28 H28      -1.4493    -6.4189     1.9322 H      1 <0>       0.0900
   29 H29      -2.8567    -5.3293     1.9448 H      1 <0>       0.0400
   30 H30      -4.9859    -6.2675     0.7975 H      1 <0>       0.0500
   31 H31      -3.9945    -6.9459    -0.5170 H      1 <0>       0.0900
   32 H32      -6.1248    -8.2169    -0.1833 H      1 <0>       0.1000
   33 H33      -4.6855    -9.2256     0.1034 H      1 <0>       0.0600
   34 H34      -5.0862    -9.0247     3.7290 H      1 <0>       0.1000
   35 H35      -4.0653    -9.7080     2.4398 H      1 <0>       0.0600
   36 H36      -2.9413    -7.7651     3.4504 H      1 <0>       0.0900
   37 H37      -4.3673    -6.7486     3.1275 H      1 <0>       0.0400
@<TRIPOS>BOND
   1    1    2 1
   2    1   21 1
   3    1   22 1
   4    1   23 1
   5    2   20 1
   6    2    3 2
   7    3    4 1
   8    3   24 1
   9    4   18 1
  10    4    5 2
  11    5    6 1
  12    5   20 1
  13    6    7 am
  14    6   25 1
  15    7    8 2
  16    7    9 am
  17    9   10 1
  18    9   18 am
  19   10   11 1
  20   10   26 1
  21   10   27 1
  22   11   12 1
  23   11   28 1
  24   11   29 1
  25   12   17 1
  26   12   13 1
  27   13   14 1
  28   13   30 1
  29   13   31 1
  30   14   15 1
  31   14   32 1
  32   14   33 1
  33   15   16 1
  34   16   17 1
  35   16   34 1
  36   16   35 1
  37   17   36 1
  38   17   37 1
  39   18   19 2
@<TRIPOS>MOLECULE
ZINC000004178893
33    35    1     0     0
SMALL
USER_CHARGES
@<TRIPOS>ATOM
1      O1     -0.0145   -0.0040   -0.0145 O.2      1 ZINC000004178893   -0.4700
2      C2     -0.0144    1.2109    0.0087 C.2      1 ZINC000004178893    0.5800
3      C3      1.2686    1.9515    0.0199 C.ar     1 ZINC000004178893   -0.0800
4      C4      1.3495    3.2406    0.5553 C.ar     1 ZINC000004178893   -0.1600
5      C5      2.5663    3.8947    0.5457 C.ar     1 ZINC000004178893    0.1100
6      N6      3.6398    3.3199    0.0410 N.ar     1 ZINC000004178893   -0.4600
7      C7      3.6072    2.1068   -0.4734 C.ar     1 ZINC000004178893    0.1100
8      C8      2.4335    1.3786   -0.4994 C.ar     1 ZINC000004178893   -0.1100
9      N9     -1.1816    1.8848    0.0187 N.am     1 ZINC000004178893   -0.4000
10     N10    -1.3585    3.2725   -0.0752 N.pl3    1 ZINC000004178893   -0.5400
11     C11    -2.7027    3.5888   -0.0303 C.2      1 ZINC000004178893    0.2300
12     C12    -3.2420    4.9938   -0.1075 C.3      1 ZINC000004178893   -0.1100
13     C13    -2.2334    6.1424   -0.0395 C.3      1 ZINC000004178893   -0.1700
14     C14    -2.9211    5.8056   -1.3641 C.3      1 ZINC000004178893   -0.1600
15     C15    -3.4556    2.5158    0.0874 C.2      1 ZINC000004178893   -0.3300
16     C16    -2.5358    1.3158    0.1241 C.3      1 ZINC000004178893    0.3700
17     O17    -2.6798    0.6147    1.3609 O.3      1 ZINC000004178893   -0.5300
18     C18    -2.8251    0.3851   -1.0554 C.3      1 ZINC000004178893    0.4200
19     F19    -2.6563    1.0857   -2.2545 F        1 ZINC000004178893   -0.1700
20     F20    -1.9424   -0.6997   -1.0209 F        1 ZINC000004178893   -0.1600
21     F21    -4.1412   -0.0816   -0.9693 F        1 ZINC000004178893   -0.1700
22     H22     0.4739    3.7179    0.9698 H        1 ZINC000004178893    0.1400
23     H23     2.6389    4.8907    0.9570 H        1 ZINC000004178893    0.1700
24     H24     4.5113    1.6745   -0.8762 H        1 ZINC000004178893    0.1700
25     H25     2.4141    0.3850   -0.9224 H        1 ZINC000004178893    0.1500
26     H26    -0.6397    3.9183   -0.1592 H        1 ZINC000004178893    0.4400
27     H27    -4.2152    5.1501    0.3577 H        1 ZINC000004178893    0.1400
28     H28    -2.5430    7.0545    0.4706 H        1 ZINC000004178893    0.1100
29     H29    -1.1798    5.8817    0.0610 H        1 ZINC000004178893    0.0900
30     H30    -2.3200    5.3234   -2.1350 H        1 ZINC000004178893    0.1000
31     H31    -3.6832    6.4962   -1.7254 H        1 ZINC000004178893    0.1100
32     H32    -4.5340    2.4957    0.1437 H        1 ZINC000004178893    0.1800
33     H33    -3.5681    0.2641    1.5132 H        1 ZINC000004178893    0.4000
@<TRIPOS>BOND
1     1     2     2
2     2     3     1
3     2     9     am
4     3     8     ar
5     3     4     ar
6     4     5     ar
7     4     22    1
8     5     6     ar
9     5     23    1
10    6     7     ar
11    7     8     ar
12    7     24    1
13    8     25    1
14    9     16    1
15    9     10    1
16    10    11    1
17    10    26    1
18    11    12    1
19    11    15    2
20    12    14    1
21    12    13    1
22    12    27    1
23    13    14    1
24    13    28    1
25    13    29    1
26    14    30    1
27    14    31    1
28    15    16    1
29    15    32    1
30    16    17    1
31    16    18    1
32    17    33    1
33    18    19    1
34    18    20    1
35    18    21    1
@<TRIPOS>SUBSTRUCTURE
1   ZINC000004178893 1     RESIDUE    1   A     ZIN   1

@<TRIPOS>MOLECULE
ZINC000004178893
32    34    1     0     0
SMALL
USER_CHARGES
@<TRIPOS>ATOM
1      O1     -0.0145   -0.0040   -0.0145 O.2      1 ZINC000004178893   -0.5000
2      C2     -0.0144    1.2109    0.0087 C.2      1 ZINC000004178893    0.5500
3      C3      1.2686    1.9515    0.0199 C.ar     1 ZINC000004178893   -0.0600
4      C4      1.3495    3.2406    0.5553 C.ar     1 ZINC000004178893   -0.1600
5      C5      2.5663    3.8947    0.5457 C.ar     1 ZINC000004178893    0.1000
6      N6      3.6398    3.3199    0.0410 N.ar     1 ZINC000004178893   -0.4800
7      C7      3.6072    2.1068   -0.4734 C.ar     1 ZINC000004178893    0.0900
8      C8      2.4335    1.3786   -0.4994 C.ar     1 ZINC000004178893   -0.1200
9      N9     -1.1816    1.8848    0.0187 N.am     1 ZINC000004178893   -0.3900
10     N10    -1.3585    3.2725   -0.0752 N.pl3    1 ZINC000004178893   -0.5600
11     C11    -2.7027    3.5888   -0.0303 C.2      1 ZINC000004178893    0.1400
12     C12    -3.2420    4.9938   -0.1075 C.3      1 ZINC000004178893   -0.0900
13     C13    -2.2334    6.1424   -0.0395 C.3      1 ZINC000004178893   -0.1800
14     C14    -2.9211    5.8056   -1.3641 C.3      1 ZINC000004178893   -0.1700
15     C15    -3.4556    2.5158    0.0874 C.2      1 ZINC000004178893   -0.2500
16     C16    -2.5358    1.3158    0.1241 C.3      1 ZINC000004178893    0.3900
17     O17    -2.6798    0.6147    1.3609 O.3      1 ZINC000004178893   -0.8000
18     C18    -2.8251    0.3851   -1.0554 C.3      1 ZINC000004178893    0.4100
19     F19    -2.6563    1.0857   -2.2545 F        1 ZINC000004178893   -0.2100
20     F20    -1.9424   -0.6997   -1.0209 F        1 ZINC000004178893   -0.1800
21     F21    -4.1412   -0.0816   -0.9693 F        1 ZINC000004178893   -0.1900
22     H22     0.4739    3.7179    0.9698 H        1 ZINC000004178893    0.1400
23     H23     2.6389    4.8907    0.9570 H        1 ZINC000004178893    0.1600
24     H24     4.5113    1.6745   -0.8762 H        1 ZINC000004178893    0.1600
25     H25     2.4141    0.3850   -0.9224 H        1 ZINC000004178893    0.1500
26     H26    -0.6397    3.9183   -0.1592 H        1 ZINC000004178893    0.4100
27     H27    -4.2152    5.1501    0.3577 H        1 ZINC000004178893    0.1300
28     H28    -2.5430    7.0545    0.4706 H        1 ZINC000004178893    0.1000
29     H29    -1.1798    5.8817    0.0610 H        1 ZINC000004178893    0.0900
30     H30    -2.3200    5.3234   -2.1350 H        1 ZINC000004178893    0.1000
31     H31    -3.6832    6.4962   -1.7254 H        1 ZINC000004178893    0.1000
32     H32    -4.5340    2.4957    0.1437 H        1 ZINC000004178893    0.1400
@<TRIPOS>BOND
1     1     2     2
2     2     3     1
3     2     9     am
4     3     8     ar
5     3     4     ar
6     4     5     ar
7     4     22    1
8     5     6     ar
9     5     23    1
10    6     7     ar
11    7     8     ar
12    7     24    1
13    8     25    1
14    9     16    1
15    9     10    1
16    10    11    1
17    10    26    1
18    11    12    1
19    11    15    2
20    12    14    1
21    12    13    1
22    12    27    1
23    13    14    1
24    13    28    1
25    13    29    1
26    14    30    1
27    14    31    1
28    15    16    1
29    15    32    1
30    16    17    1
31    16    18    1
32    18    19    1
33    18    20    1
34    18    21    1
@<TRIPOS>SUBSTRUCTURE
1   ZINC000004178893 1     RESIDUE    1   A     ZIN   1
@<TRIPOS>MOLECULE
ZINC000048961797
  29   30    0    0    0
SMALL
USER_CHARGES
NO_NAME
@<TRIPOS>ATOM
    1 C1       -0.0178     1.4608     0.0101 C.3    1 <0>       0.0700
    2 N2        0.0021    -0.0041     0.0020 N.am   1 <0>      -0.4800
    3 C3       -1.1715    -0.6924     0.0039 C.2    1 <0>      -0.0100
    4 C4       -1.1760    -2.0511    -0.0030 C.2    1 <0>       0.1700
    5 N5       -2.3925    -2.7504    -0.0009 N.pl3  1 <0>      -1.0900
    6 S6       -2.3955    -4.4064    -0.0094 S.o2   1 <0>       2.6000
    7 O7       -1.8576    -4.8023    -1.2636 O.2    1 <0>      -1.0200
    8 O8       -1.8461    -4.8150     1.2358 O.2    1 <0>      -1.0200
    9 C9       -4.0795    -4.9248    -0.0042 C.ar   1 <0>      -0.7000
   10 C10      -4.7376    -5.1293     1.1962 C.ar   1 <0>       0.2200
   11 F11      -4.0891    -4.9309     2.3647 F      1 <0>      -0.1000
   12 C12      -6.0610    -5.5368     1.1991 C.ar   1 <0>      -0.2000
   13 C13      -6.7248    -5.7393     0.0039 C.ar   1 <0>      -0.0300
   14 C14      -6.0688    -5.5355    -1.1954 C.ar   1 <0>      -0.2000
   15 C15      -4.7470    -5.1225    -1.2006 C.ar   1 <0>       0.2200
   16 F16      -4.1061    -4.9230    -2.3730 F      1 <0>      -0.1000
   17 C17       0.0414    -2.7546    -0.0127 C.2    1 <0>      -0.0900
   18 C18       1.2137    -2.0578    -0.0150 C.2    1 <0>      -0.2200
   19 C19       1.1814    -0.6534    -0.0127 C.2    1 <0>       0.4900
   20 O20       2.2255    -0.0201    -0.0152 O.2    1 <0>      -0.6000
   21 H21       1.0048     1.8381     0.0023 H      1 <0>       0.0900
   22 H22      -0.5450     1.8219    -0.8730 H      1 <0>       0.0700
   23 H23      -0.5280     1.8123     0.9069 H      1 <0>       0.0700
   24 H24      -2.1077    -0.1540     0.0114 H      1 <0>       0.1500
   25 H25      -6.5746    -5.6967     2.1356 H      1 <0>       0.1500
   26 H26      -7.7569    -6.0575     0.0070 H      1 <0>       0.1500
   27 H27      -6.5883    -5.6945    -2.1287 H      1 <0>       0.1500
   28 H28       0.0481    -3.8346    -0.0179 H      1 <0>       0.1100
   29 H29       2.1585    -2.5810    -0.0220 H      1 <0>       0.1400
@<TRIPOS>BOND
   1    1    2 1
   2    1   21 1
   3    1   22 1
   4    1   23 1
   5    2   19 am
   6    2    3 1
   7    3    4 2
   8    3   24 1
   9    4    5 1
  10    4   17 1
  11    5    6 1
  12    6    7 2
  13    6    8 2
  14    6    9 1
  15    9   15 ar
  16    9   10 ar
  17   10   11 1
  18   10   12 ar
  19   12   13 ar
  20   12   25 1
  21   13   14 ar
  22   13   26 1
  23   14   15 ar
  24   14   27 1
  25   15   16 1
  26   17   18 2
  27   17   28 1
  28   18   19 1
  29   18   29 1
  30   19   20 2

@<TRIPOS>MOLECULE
ZINC000048961797
  30   31    0    0    0
SMALL
USER_CHARGES
NO_NAME
@<TRIPOS>ATOM
    1 C1        0.4949    -0.0501     2.0814 C.3    1 <0>       0.0500
    2 N2        0.1901    -1.3686     1.5205 N.am   1 <0>      -0.4800
    3 C3       -1.0542    -1.6196     1.0307 C.2    1 <0>       0.0500
    4 C4       -1.3585    -2.8356     0.5065 C.2    1 <0>       0.0600
    5 N5       -2.6450    -3.0830     0.0042 N.am   1 <0>      -1.0400
    6 S6       -3.8217    -1.9251     0.1349 S.o2   1 <0>       2.6900
    7 O7       -3.2534    -0.7184    -0.3551 O.2    1 <0>      -0.9200
    8 O8       -5.0086    -2.4974    -0.3971 O.2    1 <0>      -0.9200
    9 C9       -4.1176    -1.6738     1.8536 C.ar   1 <0>      -0.7700
   10 C10      -4.7328    -2.6622     2.6023 C.ar   1 <0>       0.2300
   11 F11      -5.1063    -3.8204     2.0157 F      1 <0>      -0.1100
   12 C12      -4.9648    -2.4636     3.9529 C.ar   1 <0>      -0.1800
   13 C13      -4.5824    -1.2789     4.5534 C.ar   1 <0>       0.0000
   14 C14      -3.9681    -0.2913     3.8069 C.ar   1 <0>      -0.1800
   15 C15      -3.7299    -0.4901     2.4573 C.ar   1 <0>       0.2200
   16 F16      -3.1290     0.4753     1.7278 F      1 <0>      -0.1000
   17 C17      -0.3806    -3.8453     0.4681 C.2    1 <0>      -0.0300
   18 C18       0.8645    -3.5862     0.9605 C.2    1 <0>      -0.2000
   19 C19       1.1460    -2.3162     1.4907 C.2    1 <0>       0.5000
   20 O20       2.2579    -2.0739     1.9338 O.2    1 <0>      -0.5500
   21 H21       1.5314    -0.0292     2.4181 H      1 <0>       0.1100
   22 H22       0.3456     0.7131     1.3176 H      1 <0>       0.0900
   23 H23      -0.1654     0.1470     2.9260 H      1 <0>       0.0800
   24 H24      -1.8067    -0.8455     1.0592 H      1 <0>       0.1700
   25 H25      -2.8452    -3.9323    -0.4195 H      1 <0>       0.4400
   26 H26      -5.4452    -3.2345     4.5372 H      1 <0>       0.1600
   27 H27      -4.7641    -1.1247     5.6068 H      1 <0>       0.1600
   28 H28      -3.6700     0.6341     4.2771 H      1 <0>       0.1600
   29 H29      -0.6130    -4.8152     0.0537 H      1 <0>       0.1500
   30 H30       1.6282    -4.3495     0.9398 H      1 <0>       0.1600
@<TRIPOS>BOND
   1    1    2 1
   2    1   21 1
   3    1   22 1
   4    1   23 1
   5    2   19 am
   6    2    3 1
   7    3    4 2
   8    3   24 1
   9    4    5 1
  10    4   17 1
  11    5    6 am
  12    5   25 1
  13    6    7 2
  14    6    8 2
  15    6    9 1
  16    9   15 ar
  17    9   10 ar
  18   10   11 1
  19   10   12 ar
  20   12   13 ar
  21   12   26 1
  22   13   14 ar
  23   13   27 1
  24   14   15 ar
  25   14   28 1
  26   15   16 1
  27   17   18 2
  28   17   29 1
  29   18   19 1
  30   18   30 1
  31   19   20 2
@<TRIPOS>MOLECULE
ZINC000049417741
  39   40    0    0    0
SMALL
USER_CHARGES
NO_NAME
@<TRIPOS>ATOM
    1 C1       -0.0187     1.5258     0.0104 C.3    1 <0>      -0.1400
    2 C2        0.0021    -0.0041     0.0020 C.3    1 <0>      -0.5800
    3 C3        0.7421    -0.5109     1.2415 C.3    1 <0>      -0.1200
    4 S4       -1.6997    -0.6320     0.0149 S.o2   1 <0>       2.5600
    5 O5       -2.3626    -0.2515     1.2129 O.2    1 <0>      -1.0200
    6 O6       -2.3115    -0.4405    -1.2533 O.2    1 <0>      -1.0200
    7 N7       -1.5332    -2.2745     0.1443 N.pl3  1 <0>      -1.1200
    8 C8       -2.6265    -3.0618     0.1820 C.2    1 <0>       0.5300
    9 O9       -3.7322    -2.5673     0.1211 O.2    1 <0>      -0.6300
   10 C10      -2.4748    -4.5578     0.2998 C.3    1 <0>      -0.0900
   11 C11      -1.7064    -4.8854     1.5798 C.3    1 <0>      -0.0900
   12 C12      -1.5217    -6.4041     1.6961 C.3    1 <0>      -0.1400
   13 H13      -0.4638    -6.6703     1.7053 H      1 <0>       0.1000
   14 C14      -2.2235    -6.8926     2.9698 C.3    1 <0>      -0.1000
   15 C15      -3.7114    -6.5534     2.9108 C.3    1 <0>      -0.1300
   16 C16      -4.3777    -7.2136     1.7058 C.3    1 <0>      -0.1000
   17 C17      -3.7177    -6.7280     0.4088 C.3    1 <0>      -0.1400
   18 H18      -4.1596    -7.2142    -0.4619 H      1 <0>       0.0900
   19 C19      -3.8602    -5.2031     0.3205 C.3    1 <0>      -0.0900
   20 C20      -2.2332    -7.0414     0.5130 C.2    1 <0>       0.3800
   21 O21      -1.6619    -7.7441    -0.2851 O.2    1 <0>      -0.4700
   22 H22       1.0039     1.9031     0.0027 H      1 <0>       0.0700
   23 H23      -0.5459     1.8868    -0.8726 H      1 <0>       0.0600
   24 H24      -0.5289     1.8773     0.9072 H      1 <0>       0.0700
   25 H25       0.5123    -0.3556    -0.8948 H      1 <0>       0.1200
   26 H26       0.7568    -1.6008     1.2356 H      1 <0>       0.0800
   27 H27       1.7647    -0.1336     1.2338 H      1 <0>       0.0500
   28 H28       0.2319    -0.1594     2.1383 H      1 <0>       0.0600
   29 H29      -1.9167    -4.9267    -0.5617 H      1 <0>       0.0800
   30 H30      -0.7262    -4.4045     1.5439 H      1 <0>       0.0900
   31 H31      -2.2542    -4.5111     2.4433 H      1 <0>       0.0700
   32 H32      -2.1012    -7.9736     3.0597 H      1 <0>       0.0600
   33 H33      -1.7750    -6.4097     3.8398 H      1 <0>       0.0700
   34 H34      -4.1935    -6.9152     3.8243 H      1 <0>       0.0600
   35 H35      -3.8412    -5.4737     2.8580 H      1 <0>       0.0800
   36 H36      -4.2732    -8.2976     1.7820 H      1 <0>       0.0600
   37 H37      -5.4387    -6.9581     1.6914 H      1 <0>       0.0700
   38 H38      -4.4253    -4.8329     1.1746 H      1 <0>       0.0800
   39 H39      -4.3919    -4.9427    -0.5976 H      1 <0>       0.0700
@<TRIPOS>BOND
   1    1    2 1
   2    1   22 1
   3    1   23 1
   4    1   24 1
   5    2    3 1
   6    2    4 1
   7    2   25 1
   8    3   26 1
   9    3   27 1
  10    3   28 1
  11    4    5 2
  12    4    6 2
  13    4    7 1
  14    7    8 1
  15    8    9 2
  16    8   10 1
  17   10   19 1
  18   10   11 1
  19   10   29 1
  20   11   12 1
  21   11   30 1
  22   11   31 1
  23   12   13 1
  24   12   20 1
  25   12   14 1
  26   14   15 1
  27   14   32 1
  28   14   33 1
  29   15   16 1
  30   15   34 1
  31   15   35 1
  32   16   17 1
  33   16   36 1
  34   16   37 1
  35   17   18 1
  36   17   19 1
  37   17   20 1
  38   19   38 1
  39   19   39 1
  40   20   21 2
@<TRIPOS>MOLECULE
ZINC000065457004
44    45    1     0     0
SMALL
USER_CHARGES
@<TRIPOS>ATOM
1      C1     -0.0184    1.5028    0.0103 C.3      1 ZINC000065457004   -0.1800
2      C2      0.0021   -0.0041    0.0020 C.2      1 ZINC000065457004    0.5200
3      O3      1.0605   -0.5961   -0.0113 O.2      1 ZINC000065457004   -0.5300
4      N4     -1.1558   -0.6938    0.0094 N.am     1 ZINC000065457004   -0.6300
5      C5     -2.4459    0.0093    0.0194 C.3      1 ZINC000065457004    0.1100
6      C6     -3.2989   -0.5089   -1.1428 C.3      1 ZINC000065457004   -0.1600
7      C7     -3.4125   -2.0321   -1.0473 C.3      1 ZINC000065457004    0.0200
8      N8     -4.2573   -2.5294   -2.1414 N.4      1 ZINC000065457004   -0.3800
9      H9     -3.8439   -2.2777   -3.0267 H        1 ZINC000065457004    0.4300
10     C10    -5.5949   -1.9310   -2.0379 C.3      1 ZINC000065457004   -0.0600
11     C11    -4.3665   -3.9915   -2.0500 C.3      1 ZINC000065457004   -0.0600
12     C12    -5.1299   -4.5135   -3.2398 C.2      1 ZINC000065457004    0.4000
13     O13    -5.5425   -3.7434   -4.0812 O.2      1 ZINC000065457004   -0.4400
14     C14    -5.3744   -5.9548   -3.3806 C.ar     1 ZINC000065457004   -0.2000
15     C15    -4.9041   -6.8455   -2.4077 C.ar     1 ZINC000065457004   -0.0500
16     C16    -5.1350   -8.1902   -2.5440 C.ar     1 ZINC000065457004   -0.1600
17     C17    -5.8344   -8.6700   -3.6462 C.ar     1 ZINC000065457004    0.1700
18     O18    -6.0598  -10.0014   -3.7765 O.3      1 ZINC000065457004   -0.4900
19     C19    -6.3040   -7.7896   -4.6150 C.ar     1 ZINC000065457004   -0.1600
20     C20    -6.0835   -6.4425   -4.4853 C.ar     1 ZINC000065457004   -0.0200
21     C21    -2.0195   -2.6569   -1.1544 C.3      1 ZINC000065457004   -0.1600
22     C22    -1.1521   -2.1630    0.0014 C.3      1 ZINC000065457004    0.1100
23     H23     1.0042    1.8801    0.0026 H        1 ZINC000065457004    0.1000
24     H24    -0.5455    1.8639   -0.8728 H        1 ZINC000065457004    0.0900
25     H25    -0.5286    1.8543    0.9071 H        1 ZINC000065457004    0.0900
26     H26    -2.9585   -0.1811    0.9622 H        1 ZINC000065457004    0.0900
27     H27    -2.2794    1.0801   -0.0987 H        1 ZINC000065457004    0.1100
28     H28    -4.2934   -0.0659   -1.0899 H        1 ZINC000065457004    0.1100
29     H29    -2.8291   -0.2377   -2.0882 H        1 ZINC000065457004    0.0900
30     H30    -3.8595   -2.3037   -0.0911 H        1 ZINC000065457004    0.1400
31     H31    -6.2218   -2.3000   -2.8497 H        1 ZINC000065457004    0.1400
32     H32    -6.0416   -2.2030   -1.0815 H        1 ZINC000065457004    0.1200
33     H33    -5.5139   -0.8462   -2.1057 H        1 ZINC000065457004    0.1300
34     H34    -3.3688   -4.4302   -2.0374 H        1 ZINC000065457004    0.1700
35     H35    -4.8931   -4.2600   -1.1342 H        1 ZINC000065457004    0.1700
36     H36    -4.3602   -6.4740   -1.5518 H        1 ZINC000065457004    0.1400
37     H37    -4.7727   -8.8780   -1.7942 H        1 ZINC000065457004    0.1500
38     H38    -6.8839  -10.3025   -3.3698 H        1 ZINC000065457004    0.4100
39     H39    -6.8470   -8.1672   -5.4688 H        1 ZINC000065457004    0.1500
40     H40    -6.4486   -5.7596   -5.2382 H        1 ZINC000065457004    0.1400
41     H41    -2.1035   -3.7428   -1.1098 H        1 ZINC000065457004    0.1000
42     H42    -1.5617   -2.3654   -2.0997 H        1 ZINC000065457004    0.0900
43     H43    -0.1323   -2.5264   -0.1257 H        1 ZINC000065457004    0.1100
44     H44    -1.5575   -2.5287    0.9448 H        1 ZINC000065457004    0.0800
@<TRIPOS>BOND
1     1     2     1
2     1     23    1
3     1     24    1
4     1     25    1
5     2     3     2
6     2     4     am
7     4     22    1
8     4     5     1
9     5     6     1
10    5     26    1
11    5     27    1
12    6     7     1
13    6     28    1
14    6     29    1
15    7     8     1
16    7     21    1
17    7     30    1
18    8     9     1
19    8     10    1
20    8     11    1
21    10    31    1
22    10    32    1
23    10    33    1
24    11    12    1
25    11    34    1
26    11    35    1
27    12    13    2
28    12    14    1
29    14    20    ar
30    14    15    ar
31    15    16    ar
32    15    36    1
33    16    17    ar
34    16    37    1
35    17    18    1
36    17    19    ar
37    18    38    1
38    19    20    ar
39    19    39    1
40    20    40    1
41    21    22    1
42    21    41    1
43    21    42    1
44    22    43    1
45    22    44    1
@<TRIPOS>SUBSTRUCTURE
1   ZINC000065457004 1     RESIDUE    1   A     ZIN   1

@<TRIPOS>MOLECULE
ZINC000065457004
42    43    1     0     0
SMALL
USER_CHARGES
@<TRIPOS>ATOM
1      C1     -0.0184    1.5028    0.0103 C.3      1 ZINC000065457004   -0.1700
2      C2      0.0021   -0.0041    0.0020 C.2      1 ZINC000065457004    0.5100
3      O3      1.0605   -0.5961   -0.0113 O.2      1 ZINC000065457004   -0.5500
4      N4     -1.1558   -0.6938    0.0094 N.am     1 ZINC000065457004   -0.6100
5      C5     -2.4459    0.0093    0.0194 C.3      1 ZINC000065457004    0.1100
6      C6     -3.2989   -0.5089   -1.1428 C.3      1 ZINC000065457004   -0.1300
7      C7     -3.4125   -2.0321   -1.0473 C.3      1 ZINC000065457004    0.0800
8      N8     -4.2573   -2.5294   -2.1414 N.3      1 ZINC000065457004   -0.5200
9      C9     -3.6160   -2.3076   -3.4443 C.3      1 ZINC000065457004    0.0100
10     C10    -4.5845   -3.9487   -1.9505 C.3      1 ZINC000065457004    0.0100
11     C11    -5.6405   -4.3589   -2.9443 C.2      1 ZINC000065457004    0.4100
12     O12    -6.0776   -3.5485   -3.7339 O.2      1 ZINC000065457004   -0.4900
13     C13    -6.1404   -5.7397   -2.9567 C.ar     1 ZINC000065457004   -0.3300
14     C14    -5.6416   -6.6757   -2.0423 C.ar     1 ZINC000065457004   -0.0200
15     C15    -6.1116   -7.9637   -2.0581 C.ar     1 ZINC000065457004   -0.2800
16     C16    -7.0818   -8.3413   -2.9804 C.ar     1 ZINC000065457004    0.3000
17     O17    -7.5432   -9.6169   -2.9922 O.3      1 ZINC000065457004   -0.7100
18     C18    -7.5808   -7.4154   -3.8904 C.ar     1 ZINC000065457004   -0.2800
19     C19    -7.1217   -6.1234   -3.8792 C.ar     1 ZINC000065457004    0.0000
20     C20    -2.0195   -2.6569   -1.1544 C.3      1 ZINC000065457004   -0.1700
21     C21    -1.1521   -2.1630    0.0014 C.3      1 ZINC000065457004    0.1200
22     H22     1.0042    1.8801    0.0026 H        1 ZINC000065457004    0.0900
23     H23    -0.5455    1.8639   -0.8728 H        1 ZINC000065457004    0.0900
24     H24    -0.5286    1.8543    0.9071 H        1 ZINC000065457004    0.0900
25     H25    -2.9585   -0.1811    0.9622 H        1 ZINC000065457004    0.0700
26     H26    -2.2794    1.0801   -0.0987 H        1 ZINC000065457004    0.0900
27     H27    -4.2934   -0.0659   -1.0899 H        1 ZINC000065457004    0.0900
28     H28    -2.8291   -0.2377   -2.0882 H        1 ZINC000065457004    0.0700
29     H29    -3.8595   -2.3037   -0.0911 H        1 ZINC000065457004    0.0800
30     H30    -2.6614   -2.8328   -3.4735 H        1 ZINC000065457004    0.0200
31     H31    -4.2627   -2.6849   -4.2364 H        1 ZINC000065457004    0.0900
32     H32    -3.4482   -1.2404   -3.5896 H        1 ZINC000065457004    0.0600
33     H33    -3.6891   -4.5515   -2.1021 H        1 ZINC000065457004    0.0600
34     H34    -4.9588   -4.1023   -0.9384 H        1 ZINC000065457004    0.1000
35     H35    -4.8877   -6.3838   -1.3262 H        1 ZINC000065457004    0.1000
36     H36    -5.7276   -8.6864   -1.3534 H        1 ZINC000065457004    0.1000
37     H37    -8.3344   -7.7135   -4.6043 H        1 ZINC000065457004    0.1000
38     H38    -7.5098   -5.4052   -4.5862 H        1 ZINC000065457004    0.1000
39     H39    -2.1035   -3.7428   -1.1098 H        1 ZINC000065457004    0.0800
40     H40    -1.5617   -2.3654   -2.0997 H        1 ZINC000065457004    0.0700
41     H41    -0.1323   -2.5264   -0.1257 H        1 ZINC000065457004    0.0900
42     H42    -1.5575   -2.5287    0.9448 H        1 ZINC000065457004    0.0700
@<TRIPOS>BOND
1     1     2     1
2     1     22    1
3     1     23    1
4     1     24    1
5     2     3     2
6     2     4     am
7     4     21    1
8     4     5     1
9     5     6     1
10    5     25    1
11    5     26    1
12    6     7     1
13    6     27    1
14    6     28    1
15    7     8     1
16    7     20    1
17    7     29    1
18    8     9     1
19    8     10    1
20    9     30    1
21    9     31    1
22    9     32    1
23    10    11    1
24    10    33    1
25    10    34    1
26    11    12    2
27    11    13    1
28    13    19    ar
29    13    14    ar
30    14    15    ar
31    14    35    1
32    15    16    ar
33    15    36    1
34    16    17    1
35    16    18    ar
36    18    19    ar
37    18    37    1
38    19    38    1
39    20    21    1
40    20    39    1
41    20    40    1
42    21    41    1
43    21    42    1
@<TRIPOS>SUBSTRUCTURE
1   ZINC000065457004 1     RESIDUE    1   A     ZIN   1

@<TRIPOS>MOLECULE
ZINC000065457004
42    43    1     0     0
SMALL
USER_CHARGES
@<TRIPOS>ATOM
1      C1     -0.0184    1.5028    0.0103 C.3      1 ZINC000065457004   -0.1700
2      C2      0.0021   -0.0041    0.0020 C.2      1 ZINC000065457004    0.5100
3      O3      1.0605   -0.5961   -0.0113 O.2      1 ZINC000065457004   -0.5500
4      N4     -1.1558   -0.6938    0.0094 N.am     1 ZINC000065457004   -0.6100
5      C5     -2.4459    0.0093    0.0194 C.3      1 ZINC000065457004    0.1100
6      C6     -3.2989   -0.5089   -1.1428 C.3      1 ZINC000065457004   -0.1300
7      C7     -3.4125   -2.0321   -1.0473 C.3      1 ZINC000065457004    0.0800
8      N8     -4.2573   -2.5294   -2.1414 N.3      1 ZINC000065457004   -0.5200
9      C9     -3.6160   -2.3076   -3.4443 C.3      1 ZINC000065457004    0.0100
10     C10    -4.5845   -3.9487   -1.9505 C.3      1 ZINC000065457004    0.0100
11     C11    -5.6405   -4.3589   -2.9443 C.2      1 ZINC000065457004    0.4100
12     O12    -6.0776   -3.5485   -3.7339 O.2      1 ZINC000065457004   -0.4900
13     C13    -6.1404   -5.7397   -2.9567 C.ar     1 ZINC000065457004   -0.3300
14     C14    -5.6416   -6.6757   -2.0423 C.ar     1 ZINC000065457004   -0.0200
15     C15    -6.1116   -7.9637   -2.0581 C.ar     1 ZINC000065457004   -0.2800
16     C16    -7.0818   -8.3413   -2.9804 C.ar     1 ZINC000065457004    0.3000
17     O17    -7.5432   -9.6169   -2.9922 O.3      1 ZINC000065457004   -0.7100
18     C18    -7.5808   -7.4154   -3.8904 C.ar     1 ZINC000065457004   -0.2800
19     C19    -7.1217   -6.1234   -3.8792 C.ar     1 ZINC000065457004    0.0000
20     C20    -2.0195   -2.6569   -1.1544 C.3      1 ZINC000065457004   -0.1700
21     C21    -1.1521   -2.1630    0.0014 C.3      1 ZINC000065457004    0.1200
22     H22     1.0042    1.8801    0.0026 H        1 ZINC000065457004    0.0900
23     H23    -0.5455    1.8639   -0.8728 H        1 ZINC000065457004    0.0900
24     H24    -0.5286    1.8543    0.9071 H        1 ZINC000065457004    0.0900
25     H25    -2.9585   -0.1811    0.9622 H        1 ZINC000065457004    0.0700
26     H26    -2.2794    1.0801   -0.0987 H        1 ZINC000065457004    0.0900
27     H27    -4.2934   -0.0659   -1.0899 H        1 ZINC000065457004    0.0900
28     H28    -2.8291   -0.2377   -2.0882 H        1 ZINC000065457004    0.0700
29     H29    -3.8595   -2.3037   -0.0911 H        1 ZINC000065457004    0.0800
30     H30    -2.6614   -2.8328   -3.4735 H        1 ZINC000065457004    0.0200
31     H31    -4.2627   -2.6849   -4.2364 H        1 ZINC000065457004    0.0900
32     H32    -3.4482   -1.2404   -3.5896 H        1 ZINC000065457004    0.0600
33     H33    -3.6891   -4.5515   -2.1021 H        1 ZINC000065457004    0.0600
34     H34    -4.9588   -4.1023   -0.9384 H        1 ZINC000065457004    0.1000
35     H35    -4.8877   -6.3838   -1.3262 H        1 ZINC000065457004    0.1000
36     H36    -5.7276   -8.6864   -1.3534 H        1 ZINC000065457004    0.1000
37     H37    -8.3344   -7.7135   -4.6043 H        1 ZINC000065457004    0.1000
38     H38    -7.5098   -5.4052   -4.5862 H        1 ZINC000065457004    0.1000
39     H39    -2.1035   -3.7428   -1.1098 H        1 ZINC000065457004    0.0800
40     H40    -1.5617   -2.3654   -2.0997 H        1 ZINC000065457004    0.0700
41     H41    -0.1323   -2.5264   -0.1257 H        1 ZINC000065457004    0.0900
42     H42    -1.5575   -2.5287    0.9448 H        1 ZINC000065457004    0.0700
@<TRIPOS>BOND
1     1     2     1
2     1     22    1
3     1     23    1
4     1     24    1
5     2     3     2
6     2     4     am
7     4     21    1
8     4     5     1
9     5     6     1
10    5     25    1
11    5     26    1
12    6     7     1
13    6     27    1
14    6     28    1
15    7     8     1
16    7     20    1
17    7     29    1
18    8     9     1
19    8     10    1
20    9     30    1
21    9     31    1
22    9     32    1
23    10    11    1
24    10    33    1
25    10    34    1
26    11    12    2
27    11    13    1
28    13    19    ar
29    13    14    ar
30    14    15    ar
31    14    35    1
32    15    16    ar
33    15    36    1
34    16    17    1
35    16    18    ar
36    18    19    ar
37    18    37    1
38    19    38    1
39    20    21    1
40    20    39    1
41    20    40    1
42    21    41    1
43    21    42    1
@<TRIPOS>SUBSTRUCTURE
1   ZINC000065457004 1     RESIDUE    1   A     ZIN   1

@<TRIPOS>MOLECULE
ZINC000065457004
44    45    1     0     0
SMALL
USER_CHARGES
@<TRIPOS>ATOM
1      C1     -0.0184    1.5028    0.0103 C.3      1 ZINC000065457004   -0.1800
2      C2      0.0021   -0.0041    0.0020 C.2      1 ZINC000065457004    0.5200
3      O3      1.0605   -0.5961   -0.0113 O.2      1 ZINC000065457004   -0.5200
4      N4     -1.1558   -0.6938    0.0094 N.am     1 ZINC000065457004   -0.6300
5      C5     -2.4459    0.0093    0.0194 C.3      1 ZINC000065457004    0.1100
6      C6     -3.2989   -0.5089   -1.1428 C.3      1 ZINC000065457004   -0.1600
7      C7     -3.4125   -2.0321   -1.0473 C.3      1 ZINC000065457004    0.0200
8      N8     -4.2573   -2.5294   -2.1414 N.4      1 ZINC000065457004   -0.3800
9      H9     -3.8439   -2.2777   -3.0267 H        1 ZINC000065457004    0.4300
10     C10    -4.3665   -3.9915   -2.0500 C.3      1 ZINC000065457004   -0.0600
11     C11    -5.5949   -1.9310   -2.0379 C.3      1 ZINC000065457004   -0.0600
12     C12    -6.4234   -2.3441   -3.2271 C.2      1 ZINC000065457004    0.4000
13     O13    -5.9464   -3.0659   -4.0772 O.2      1 ZINC000065457004   -0.4400
14     C14    -7.8082   -1.8726   -3.3566 C.ar     1 ZINC000065457004   -0.2000
15     C15    -8.3594   -1.0345   -2.3794 C.ar     1 ZINC000065457004   -0.0500
16     C16    -9.6529   -0.5972   -2.5051 C.ar     1 ZINC000065457004   -0.1600
17     C17   -10.4173   -0.9849   -3.6004 C.ar     1 ZINC000065457004    0.1700
18     O18   -11.6967   -0.5498   -3.7199 O.3      1 ZINC000065457004   -0.4900
19     C19    -9.8745   -1.8167   -4.5740 C.ar     1 ZINC000065457004   -0.1600
20     C20    -8.5802   -2.2550   -4.4607 C.ar     1 ZINC000065457004   -0.0200
21     C21    -2.0195   -2.6569   -1.1544 C.3      1 ZINC000065457004   -0.1600
22     C22    -1.1521   -2.1630    0.0014 C.3      1 ZINC000065457004    0.1100
23     H23     1.0042    1.8801    0.0026 H        1 ZINC000065457004    0.1000
24     H24    -0.5455    1.8639   -0.8728 H        1 ZINC000065457004    0.0900
25     H25    -0.5286    1.8543    0.9071 H        1 ZINC000065457004    0.0900
26     H26    -2.9585   -0.1811    0.9622 H        1 ZINC000065457004    0.0900
27     H27    -2.2794    1.0801   -0.0987 H        1 ZINC000065457004    0.1100
28     H28    -4.2934   -0.0659   -1.0899 H        1 ZINC000065457004    0.1000
29     H29    -2.8291   -0.2377   -2.0882 H        1 ZINC000065457004    0.1000
30     H30    -3.8595   -2.3037   -0.0911 H        1 ZINC000065457004    0.1400
31     H31    -3.3740   -4.4354   -2.1268 H        1 ZINC000065457004    0.1300
32     H32    -4.8132   -4.2634   -1.0936 H        1 ZINC000065457004    0.1200
33     H33    -4.9934   -4.3604   -2.8618 H        1 ZINC000065457004    0.1400
34     H34    -6.0768   -2.2745   -1.1225 H        1 ZINC000065457004    0.1700
35     H35    -5.5064   -0.8449   -2.0164 H        1 ZINC000065457004    0.1700
36     H36    -7.7669   -0.7335   -1.5282 H        1 ZINC000065457004    0.1400
37     H37   -10.0789    0.0492   -1.7521 H        1 ZINC000065457004    0.1500
38     H38   -11.7852    0.2838   -4.2019 H        1 ZINC000065457004    0.4100
39     H39   -10.4721   -2.1146   -5.4228 H        1 ZINC000065457004    0.1500
40     H40    -8.1596   -2.9009   -5.2172 H        1 ZINC000065457004    0.1400
41     H41    -2.1035   -3.7428   -1.1098 H        1 ZINC000065457004    0.1000
42     H42    -1.5617   -2.3654   -2.0997 H        1 ZINC000065457004    0.0900
43     H43    -0.1323   -2.5264   -0.1257 H        1 ZINC000065457004    0.1100
44     H44    -1.5575   -2.5287    0.9448 H        1 ZINC000065457004    0.0800
@<TRIPOS>BOND
1     1     2     1
2     1     23    1
3     1     24    1
4     1     25    1
5     2     3     2
6     2     4     am
7     4     22    1
8     4     5     1
9     5     6     1
10    5     26    1
11    5     27    1
12    6     7     1
13    6     28    1
14    6     29    1
15    7     8     1
16    7     21    1
17    7     30    1
18    8     9     1
19    8     10    1
20    8     11    1
21    10    31    1
22    10    32    1
23    10    33    1
24    11    12    1
25    11    34    1
26    11    35    1
27    12    13    2
28    12    14    1
29    14    20    ar
30    14    15    ar
31    15    16    ar
32    15    36    1
33    16    17    ar
34    16    37    1
35    17    18    1
36    17    19    ar
37    18    38    1
38    19    20    ar
39    19    39    1
40    20    40    1
41    21    22    1
42    21    41    1
43    21    42    1
44    22    43    1
45    22    44    1
@<TRIPOS>SUBSTRUCTURE
1   ZINC000065457004 1     RESIDUE    1   A     ZIN   1
@<TRIPOS>MOLECULE
ZINC000069218563
  33   35    0    0    0
SMALL
USER_CHARGES
NO_NAME
@<TRIPOS>ATOM
    1 C1       -0.0184     1.5028     0.0103 C.3    1 <0>      -0.0800
    2 C2        0.0021    -0.0041     0.0020 C.2    1 <0>       0.0700
    3 C3        0.0068    -0.7208    -1.1259 C.2    1 <0>      -0.2500
    4 S4        0.0319    -2.4264    -0.6844 S.3    1 <0>       0.1200
    5 C5        0.0335    -2.0062     0.9729 C.2    1 <0>       0.0300
    6 C6        0.0520    -2.9918     2.1127 C.3    1 <0>       0.2200
    7 H7        0.3154    -2.4752     3.0356 H      1 <0>       0.1400
    8 C8       -1.3324    -3.6263     2.2607 C.3    1 <0>      -0.1600
    9 N9        1.0413    -4.0369     1.8386 N.pl3  1 <0>      -0.6700
   10 C10       1.6164    -4.7314     2.8803 C.2    1 <0>       0.5200
   11 N11       1.2855    -4.4718     4.1042 N.am   1 <0>      -0.8800
   12 S12       2.1848    -5.5072     5.0609 S.o2   1 <0>       2.5900
   13 O13       3.1170    -4.7189     5.7882 O.2    1 <0>      -0.9400
   14 O14       1.2850    -6.4315     5.6569 O.2    1 <0>      -0.9400
   15 C15       3.0817    -6.3690     3.7998 C.ar   1 <0>      -0.6200
   16 C16       4.0141    -7.3657     3.7943 C.ar   1 <0>       0.0100
   17 C17       4.5262    -7.8202     2.5871 C.ar   1 <0>      -0.0900
   18 C18       4.0842    -7.2565     1.4038 C.ar   1 <0>      -0.0900
   19 C19       3.1438    -6.2504     1.4065 C.ar   1 <0>      -0.0500
   20 C20       2.6109    -5.7828     2.6171 C.ar   1 <0>      -0.1200
   21 N21       0.0223    -0.7228     1.1064 N.2    1 <0>      -0.4500
   22 H22       1.0042     1.8801     0.0026 H      1 <0>       0.0800
   23 H23      -0.5455     1.8639    -0.8728 H      1 <0>       0.0800
   24 H24      -0.5286     1.8543     0.9071 H      1 <0>       0.0800
   25 H25      -0.0030    -0.3246    -2.1305 H      1 <0>       0.1800
   26 H26      -1.3191    -4.3392     3.0851 H      1 <0>       0.0900
   27 H27      -2.0685    -2.8487     2.4647 H      1 <0>       0.0800
   28 H28      -1.5959    -4.1429     1.3378 H      1 <0>       0.0600
   29 H29       1.2915    -4.2400     0.9236 H      1 <0>       0.4100
   30 H30       4.3520    -7.7981     4.7245 H      1 <0>       0.1500
   31 H31       5.2646    -8.6081     2.5717 H      1 <0>       0.1500
   32 H32       4.4826    -7.6101     0.4643 H      1 <0>       0.1500
   33 H33       2.8118    -5.8224     0.4721 H      1 <0>       0.1400
@<TRIPOS>BOND
   1    1    2 1
   2    1   22 1
   3    1   23 1
   4    1   24 1
   5    2   21 1
   6    2    3 2
   7    3    4 1
   8    3   25 1
   9    4    5 1
  10    5    6 1
  11    5   21 2
  12    6    7 1
  13    6    8 1
  14    6    9 1
  15    8   26 1
  16    8   27 1
  17    8   28 1
  18    9   10 1
  19    9   29 1
  20   10   20 1
  21   10   11 2
  22   11   12 am
  23   12   13 2
  24   12   14 2
  25   12   15 1
  26   15   20 ar
  27   15   16 ar
  28   16   17 ar
  29   16   30 1
  30   17   18 ar
  31   17   31 1
  32   18   19 ar
  33   18   32 1
  34   19   20 ar
  35   19   33 1
@<TRIPOS>MOLECULE
ZINC000073461803
  38   40    0    0    0
SMALL
USER_CHARGES
NO_NAME
@<TRIPOS>ATOM
    1 O1       -0.2038    -0.0006     0.1262 O.2    1 <0>      -0.9700
    2 S2       -0.4428     1.3979     0.2045 S.o2   1 <0>       2.7800
    3 O3        0.5357     2.3302     0.6436 O.2    1 <0>      -0.9600
    4 N4       -0.9002     1.8797    -1.3124 N.am   1 <0>      -1.1200
    5 C5       -1.2449     3.2814    -1.5629 C.3    1 <0>       0.2000
    6 H6       -1.1606     3.8333    -0.6267 H      1 <0>       0.1000
    7 C7       -2.6852     3.3501    -2.0397 C.3    1 <0>      -0.1400
    8 C8       -3.0667     4.8200    -2.2655 C.3    1 <0>      -0.1100
    9 S9       -2.2101     5.3763    -3.7671 S.3    1 <0>      -0.0900
   10 C10      -0.5693     4.7759    -3.5204 C.ar   1 <0>      -0.1100
   11 C11       0.4360     5.2686    -4.3571 C.ar   1 <0>       0.1100
   12 F12       0.1303     6.1808    -5.3056 F      1 <0>      -0.1300
   13 C13       1.7376     4.8323    -4.2227 C.ar   1 <0>      -0.1300
   14 C14       2.0451     3.8960    -3.2520 C.ar   1 <0>      -0.0900
   15 C15       1.0562     3.4112    -2.4242 C.ar   1 <0>      -0.1000
   16 C16      -0.2629     3.8492    -2.5452 C.ar   1 <0>      -0.0800
   17 N17      -1.7538     1.5935     1.1971 N.am   1 <0>      -1.0100
   18 C18      -1.9835     2.8615     1.9075 C.3    1 <0>       0.0800
   19 C19      -3.4279     3.3054     1.6494 C.3    1 <0>       0.0400
   20 O20      -4.3147     2.2300     1.9671 O.3    1 <0>      -0.3700
   21 C21      -4.1320     1.0633     1.1614 C.3    1 <0>       0.0500
   22 C22      -2.7267     0.5065     1.3901 C.3    1 <0>       0.0900
   23 H23      -0.9400     1.2339    -2.0350 H      1 <0>       0.4200
   24 H24      -2.7867     2.7991    -2.9747 H      1 <0>       0.0900
   25 H25      -3.3404     2.9149    -1.2851 H      1 <0>       0.0900
   26 H26      -4.1449     4.9068    -2.3999 H      1 <0>       0.1200
   27 H27      -2.7488     5.4206    -1.4132 H      1 <0>       0.1000
   28 H28       2.5107     5.2183    -4.8706 H      1 <0>       0.1500
   29 H29       3.0605     3.5447    -3.1431 H      1 <0>       0.1400
   30 H30       1.3062     2.6791    -1.6706 H      1 <0>       0.1300
   31 H31      -1.8296     2.7164     2.9768 H      1 <0>       0.0900
   32 H32      -1.2945     3.6202     1.5366 H      1 <0>       0.1000
   33 H33      -3.6614     4.1668     2.2752 H      1 <0>       0.1100
   34 H34      -3.5439     3.5750     0.5997 H      1 <0>       0.0600
   35 H35      -4.8719     0.3116     1.4361 H      1 <0>       0.1100
   36 H36      -4.2505     1.3247     0.1099 H      1 <0>       0.0600
   37 H37      -2.5293    -0.2954     0.6787 H      1 <0>       0.1000
   38 H38      -2.6444     0.1239     2.4074 H      1 <0>       0.0800
@<TRIPOS>BOND
   1    1    2 2
   2    2    3 2
   3    2    4 am
   4    2   17 am
   5    4    5 1
   6    4   23 1
   7    5    6 1
   8    5   16 1
   9    5    7 1
  10    7    8 1
  11    7   24 1
  12    7   25 1
  13    8    9 1
  14    8   26 1
  15    8   27 1
  16    9   10 1
  17   10   16 ar
  18   10   11 ar
  19   11   12 1
  20   11   13 ar
  21   13   14 ar
  22   13   28 1
  23   14   15 ar
  24   14   29 1
  25   15   16 ar
  26   15   30 1
  27   17   22 1
  28   17   18 1
  29   18   19 1
  30   18   31 1
  31   18   32 1
  32   19   20 1
  33   19   33 1
  34   19   34 1
  35   20   21 1
  36   21   22 1
  37   21   35 1
  38   21   36 1
  39   22   37 1
  40   22   38 1
@<TRIPOS>MOLECULE
ZINC000074049452
30    31    1     0     0
SMALL
USER_CHARGES
@<TRIPOS>ATOM
1      C1      0.0546    1.5127    0.1474 C.3      1 ZINC000074049452    0.0600
2      N2      0.1001    0.0489    0.1090 N.am     1 ZINC000074049452   -0.4900
3      C3      0.1987   -0.5894   -1.0881 C.2      1 ZINC000074049452    0.1100
4      C4      0.2430   -1.9393   -1.1519 C.2      1 ZINC000074049452   -0.1900
5      C5      0.1867   -2.7001    0.0251 C.2      1 ZINC000074049452   -0.1100
6      C6      0.0875   -2.0605    1.2300 C.2      1 ZINC000074049452    0.0500
7      N7      0.0300   -2.7962    2.4202 N.am     1 ZINC000074049452   -1.0300
8      S8     -0.0501   -4.4494    2.3687 S.o2     1 ZINC000074049452    2.7000
9      O9      0.9783   -4.8736    1.4846 O.2      1 ZINC000074049452   -0.9300
10     O10    -0.1463   -4.8887    3.7167 O.2      1 ZINC000074049452   -0.9300
11     C11    -1.5761   -4.8739    1.5969 C.ar     1 ZINC000074049452   -0.6700
12     C12    -2.7407   -4.9050    2.3407 C.ar     1 ZINC000074049452    0.0100
13     C13    -3.9393   -5.2378    1.7374 C.ar     1 ZINC000074049452   -0.1400
14     C14    -3.9740   -5.5397    0.3875 C.ar     1 ZINC000074049452    0.1300
15     F15    -5.1450   -5.8645   -0.2029 F        1 ZINC000074049452   -0.1100
16     C16    -2.8056   -5.5080   -0.3590 C.ar     1 ZINC000074049452    0.0500
17     F17    -2.8370   -5.8024   -1.6771 F        1 ZINC000074049452   -0.1200
18     C18    -1.6083   -5.1699    0.2468 C.ar     1 ZINC000074049452   -0.0300
19     C19     0.0493   -0.6490    1.2596 C.2      1 ZINC000074049452    0.5200
20     O20    -0.0386   -0.0625    2.3266 O.2      1 ZINC000074049452   -0.5400
21     H21     1.0686    1.9059    0.2205 H        1 ZINC000074049452    0.0800
22     H22    -0.4150    1.8856   -0.7628 H        1 ZINC000074049452    0.0900
23     H23    -0.5236    1.8356    1.0132 H        1 ZINC000074049452    0.1000
24     H24     0.2419   -0.0108   -1.9990 H        1 ZINC000074049452    0.1700
25     H25     0.3214   -2.4320   -2.1098 H        1 ZINC000074049452    0.1600
26     H26     0.2210   -3.7786   -0.0196 H        1 ZINC000074049452    0.1500
27     H27     0.0371   -2.3373    3.2748 H        1 ZINC000074049452    0.4400
28     H28    -2.7142   -4.6695    3.3944 H        1 ZINC000074049452    0.1600
29     H29    -4.8485   -5.2625    2.3198 H        1 ZINC000074049452    0.1600
30     H30    -0.6978   -5.1445   -0.3334 H        1 ZINC000074049452    0.1700
@<TRIPOS>BOND
1     1     2     1
2     1     21    1
3     1     22    1
4     1     23    1
5     2     19    am
6     2     3     1
7     3     4     2
8     3     24    1
9     4     5     1
10    4     25    1
11    5     6     2
12    5     26    1
13    6     7     1
14    6     19    1
15    7     8     am
16    7     27    1
17    8     9     2
18    8     10    2
19    8     11    1
20    11    18    ar
21    11    12    ar
22    12    13    ar
23    12    28    1
24    13    14    ar
25    13    29    1
26    14    15    1
27    14    16    ar
28    16    17    1
29    16    18    ar
30    18    30    1
31    19    20    2
@<TRIPOS>SUBSTRUCTURE
1   ZINC000074049452 1     RESIDUE    1   A     ZIN   1

@<TRIPOS>MOLECULE
ZINC000074049452
29    30    1     0     0
SMALL
USER_CHARGES
@<TRIPOS>ATOM
1      C1     -0.0178    1.4608    0.0101 C.3      1 ZINC000074049452    0.0700
2      N2      0.0021   -0.0041    0.0020 N.am     1 ZINC000074049452   -0.5000
3      C3      0.0056   -0.6698   -1.1841 C.2      1 ZINC000074049452   -0.0200
4      C4      0.0242   -2.0213   -1.2200 C.2      1 ZINC000074049452   -0.1200
5      C5      0.0398   -2.7553   -0.0249 C.2      1 ZINC000074049452   -0.2900
6      C6      0.0363   -2.0881    1.1691 C.2      1 ZINC000074049452    0.2000
7      N7      0.0520   -2.7966    2.3769 N.pl3    1 ZINC000074049452   -1.0600
8      S8      0.0750   -4.4524    2.3653 S.o2     1 ZINC000074049452    2.6100
9      O9     -1.1718   -4.8672    1.8242 O.2      1 ZINC000074049452   -1.0200
10     O10     1.3274   -4.8325    1.8120 O.2      1 ZINC000074049452   -1.0200
11     C11     0.0905   -4.9856    4.0446 C.ar     1 ZINC000074049452   -0.6000
12     C12     1.2938   -5.1724    4.6985 C.ar     1 ZINC000074049452    0.0000
13     C13     1.3086   -5.5907    6.0162 C.ar     1 ZINC000074049452   -0.1500
14     C14     0.1179   -5.8224    6.6819 C.ar     1 ZINC000074049452    0.1000
15     F15     0.1315   -6.2308    7.9696 F        1 ZINC000074049452   -0.1300
16     C16    -1.0895   -5.6346    6.0259 C.ar     1 ZINC000074049452    0.0400
17     F17    -2.2534   -5.8602    6.6738 F        1 ZINC000074049452   -0.1300
18     C18    -1.1010   -5.2112    4.7086 C.ar     1 ZINC000074049452   -0.0300
19     C19     0.0223   -0.6758    1.1691 C.2      1 ZINC000074049452    0.5200
20     O20     0.0194   -0.0648    2.2259 O.2      1 ZINC000074049452   -0.5400
21     H21     1.0048    1.8381    0.0023 H        1 ZINC000074049452    0.0600
22     H22    -0.5450    1.8219   -0.8730 H        1 ZINC000074049452    0.0700
23     H23    -0.5280    1.8123    0.9069 H        1 ZINC000074049452    0.0800
24     H24    -0.0071   -0.1119   -2.1088 H        1 ZINC000074049452    0.1400
25     H25     0.0267   -2.5360   -2.1694 H        1 ZINC000074049452    0.1200
26     H26     0.0540   -3.8350   -0.0471 H        1 ZINC000074049452    0.1000
27     H27     2.2235   -4.9917    4.1794 H        1 ZINC000074049452    0.1600
28     H28     2.2495   -5.7370    6.5258 H        1 ZINC000074049452    0.1500
29     H29    -2.0406   -5.0642    4.1968 H        1 ZINC000074049452    0.1600
@<TRIPOS>BOND
1     1     2     1
2     1     21    1
3     1     22    1
4     1     23    1
5     2     19    am
6     2     3     1
7     3     4     2
8     3     24    1
9     4     5     1
10    4     25    1
11    5     6     2
12    5     26    1
13    6     7     1
14    6     19    1
15    7     8     1
16    8     9     2
17    8     10    2
18    8     11    1
19    11    18    ar
20    11    12    ar
21    12    13    ar
22    12    27    1
23    13    14    ar
24    13    28    1
25    14    15    1
26    14    16    ar
27    16    17    1
28    16    18    ar
29    18    29    1
30    19    20    2
@<TRIPOS>SUBSTRUCTURE
1   ZINC000074049452 1     RESIDUE    1   A     ZIN   1
@<TRIPOS>MOLECULE
ZINC000079360139
  43   44    0    0    0
SMALL
NO_CHARGES
@<TRIPOS>ATOM
   1 C1            -0.0730    -1.2110     2.6588 C.3     
   2 C2             0.2030    -2.5345     1.9425 C.3     
   3 C3             0.5449    -2.2596     0.4768 C.3     
   4 H4            -0.2646    -1.6770     0.0372 H       
   5 C5             0.6361    -3.5936    -0.2578 C.3     
   6 C6             0.3272    -3.3817    -1.7194 C.3     
   7 C7             1.6262    -3.1144    -2.5012 C.3     
   8 N8             2.5508    -2.2349    -1.7595 N.am    
   9 C9             3.8651    -2.5336    -1.7580 C.2     
  10 O10            4.6913    -1.6415    -1.7529 O.2     
  11 N11            4.2635    -3.8211    -1.7622 N.am    
  12 C12            5.5703    -4.2470    -1.2240 C.3     
  13 H13            6.3466    -4.1667    -1.9850 H       
  14 C14            5.9403    -3.4281     0.0142 C.3     
  15 S15            5.2690    -6.0083    -0.7819 S.3     
  16 C16            4.0908    -6.2866    -2.1704 C.3     
  17 C17            3.4342    -4.8928    -2.2920 C.3     
  18 H18            2.4841    -4.9052    -1.7579 H       
  19 C19            3.1666    -4.6087    -3.7476 C.2     
  20 O20            2.2836    -5.2111    -4.3340 O.co2   
  21 O21            3.8330    -3.7763    -4.3388 O.co2   
  22 C22            2.1049    -1.0659    -1.0350 C.3     
  23 C23            1.7774    -1.4582     0.4272 C.3     
  24 H24            0.8122    -0.5773     2.6049 H       
  25 H25           -0.9111    -0.7060     2.1788 H       
  26 H26           -0.3166    -1.4069     3.7030 H       
  27 H27            1.0412    -3.0396     2.4226 H       
  28 H28           -0.6822    -3.1683     1.9964 H       
  29 H29            1.6429    -3.9980    -0.1538 H       
  30 H30           -0.0830    -4.2933     0.1681 H       
  31 H31           -0.1584    -4.2720    -2.1190 H       
  32 H32           -0.3419    -2.5281    -1.8274 H       
  33 H33            2.1228    -4.0646    -2.6980 H       
  34 H34            1.3764    -2.6439    -3.4522 H       
  35 H35            5.1317    -3.4857     0.7429 H       
  36 H36            6.8545    -3.8269     0.4538 H       
  37 H37            6.0983    -2.3882    -0.2718 H       
  38 H38            4.6196    -6.5559    -3.0847 H       
  39 H39            3.3511    -7.0438    -1.9104 H       
  40 H40            2.8928    -0.3126    -1.0413 H       
  41 H41            1.2127    -0.6613    -1.5127 H       
  42 H42            1.6409    -0.5546     1.0212 H       
  43 H43            2.6043    -2.0364     0.8394 H       
@<TRIPOS>BOND
   1    1    2 1
   2    1   24 1
   3    1   25 1
   4    1   26 1
   5    2    3 1
   6    2   27 1
   7    2   28 1
   8    3    4 1
   9    3   23 1
  10    3    5 1
  11    5    6 1
  12    5   29 1
  13    5   30 1
  14    6    7 1
  15    6   31 1
  16    6   32 1
  17    7    8 1
  18    7   33 1
  19    7   34 1
  20    8    9 am
  21    8   22 1
  22    9   10 2
  23    9   11 am
  24   11   17 1
  25   11   12 1
  26   12   13 1
  27   12   14 1
  28   12   15 1
  29   14   35 1
  30   14   36 1
  31   14   37 1
  32   15   16 1
  33   16   17 1
  34   16   38 1
  35   16   39 1
  36   17   18 1
  37   17   19 1
  38   19   20 ar
  39   19   21 ar
  40   22   23 1
  41   22   40 1
  42   22   41 1
  43   23   42 1
  44   23   43 1
@<TRIPOS>MOLECULE
ZINC000083150619
27    28    1     0     0
SMALL
USER_CHARGES
@<TRIPOS>ATOM
1      C1     -0.0184    1.5028    0.0103 C.3      1 ZINC000083150619   -0.0800
2      C2      0.0021   -0.0041    0.0020 C.2      1 ZINC000083150619    0.0400
3      N3      0.0076   -0.7367   -1.0600 N.2      1 ZINC000083150619   -0.4900
4      C4      0.0268   -2.0432   -0.8886 C.2      1 ZINC000083150619    0.1700
5      C5      0.0358   -3.0164   -2.0392 C.3      1 ZINC000083150619   -0.0900
6      C6      0.0381   -2.4344    0.3892 C.2      1 ZINC000083150619   -0.7700
7      S7      0.0642   -4.1000    0.9633 S.o2     1 ZINC000083150619    2.6700
8      O8     -1.2843   -4.4485    1.2452 O.2      1 ZINC000083150619   -1.0100
9      O9      0.8805   -4.8252    0.0538 O.2      1 ZINC000083150619   -1.0000
10     N10     0.8619   -4.1060    2.4145 N.pl3    1 ZINC000083150619   -1.1200
11     C11     1.0303   -5.2622    3.0862 C.2      1 ZINC000083150619    0.5500
12     O12     0.5977   -6.2984    2.6277 O.2      1 ZINC000083150619   -0.6000
13     C13     1.7562   -5.2676    4.4068 C.3      1 ZINC000083150619   -0.1000
14     H14     2.5726   -4.5511    4.4975 H        1 ZINC000083150619    0.1400
15     C15     0.9352   -5.5659    5.6630 C.3      1 ZINC000083150619   -0.1300
16     C16     1.9131   -6.6115    5.1212 C.3      1 ZINC000083150619    0.0100
17     Cl17    1.2150   -8.0675    4.3189 Cl       1 ZINC000083150619   -0.0600
18     Cl18    3.4340   -6.8886    6.0491 Cl       1 ZINC000083150619   -0.1200
19     S19     0.0287   -0.9901    1.3985 S.3      1 ZINC000083150619    0.2500
20     H20     1.0042    1.8801    0.0026 H        1 ZINC000083150619    0.0900
21     H21    -0.5455    1.8639   -0.8728 H        1 ZINC000083150619    0.0900
22     H22    -0.5286    1.8543    0.9071 H        1 ZINC000083150619    0.0800
23     H23     1.0655   -3.2362   -2.3211 H        1 ZINC000083150619    0.0900
24     H24    -0.4634   -3.9379   -1.7395 H        1 ZINC000083150619    0.0800
25     H25    -0.4882   -2.5791   -2.8890 H        1 ZINC000083150619    0.0800
26     H26     1.2117   -5.0458    6.5801 H        1 ZINC000083150619    0.1200
27     H27    -0.1299   -5.7582    5.5342 H        1 ZINC000083150619    0.1200
@<TRIPOS>BOND
1     1     2     1
2     1     20    1
3     1     21    1
4     1     22    1
5     2     19    1
6     2     3     2
7     3     4     1
8     4     5     1
9     4     6     2
10    5     23    1
11    5     24    1
12    5     25    1
13    6     7     1
14    6     19    1
15    7     8     2
16    7     9     2
17    7     10    1
18    10    11    1
19    11    12    2
20    11    13    1
21    13    14    1
22    13    16    1
23    13    15    1
24    15    16    1
25    15    26    1
26    15    27    1
27    16    17    1
28    16    18    1
@<TRIPOS>SUBSTRUCTURE
1   ZINC000083150619 1     RESIDUE    1   A     ZIN   1
@<TRIPOS>MOLECULE
ZINC000065613806
36    38    1     0     0
SMALL
USER_CHARGES
@<TRIPOS>ATOM
1      C1      2.9480   -3.8710   -4.5865 C.3      1 ZINC000065613806   -0.1200
2      C2      2.4655   -3.9722   -3.1624 C.ar     1 ZINC000065613806   -0.0900
3      C3      2.7458   -2.9566   -2.2665 C.ar     1 ZINC000065613806   -0.1000
4      C4      2.3068   -3.0424   -0.9612 C.ar     1 ZINC000065613806   -0.0700
5      C5      1.5779   -4.1570   -0.5441 C.ar     1 ZINC000065613806   -0.1400
6      C6      1.1045   -4.2539    0.8532 C.2      1 ZINC000065613806    0.6100
7      O7      1.7342   -3.7218    1.7465 O.2      1 ZINC000065613806   -0.4400
8      N8     -0.0251   -4.9322    1.1366 N.am     1 ZINC000065613806   -0.6600
9      C9     -1.2571   -4.2046    1.4511 C.3      1 ZINC000065613806    0.1000
10     C10    -1.1784   -2.6782    1.5187 C.3      1 ZINC000065613806   -0.1800
11     C11    -1.8799   -3.3566    0.3403 C.3      1 ZINC000065613806   -0.1900
12     C12    -0.0209   -6.3972    1.1300 C.3      1 ZINC000065613806    0.1400
13     H13    -0.0300   -6.7843    2.1489 H        1 ZINC000065613806    0.1300
14     C14     1.2012   -6.9331    0.3567 C.3      1 ZINC000065613806   -0.2200
15     C15     0.5848   -7.7119   -0.7849 C.2      1 ZINC000065613806    0.5300
16     O16     1.2013   -8.3042   -1.6444 O.2      1 ZINC000065613806   -0.4600
17     N17    -0.7492   -7.6436   -0.6951 N.am     1 ZINC000065613806   -0.6800
18     C18    -1.2016   -6.9296    0.3476 C.2      1 ZINC000065613806    0.5200
19     O19    -2.3686   -6.7408    0.6158 O.2      1 ZINC000065613806   -0.4500
20     C20     1.2971   -5.1796   -1.4515 C.ar     1 ZINC000065613806   -0.1400
21     C21     1.7377   -5.0798   -2.7573 C.ar     1 ZINC000065613806    0.1000
22     F22     1.4670   -6.0680   -3.6379 F        1 ZINC000065613806   -0.1200
23     H23     2.1925   -3.3695   -5.1913 H        1 ZINC000065613806    0.0800
24     H24     3.8755   -3.2993   -4.6161 H        1 ZINC000065613806    0.0800
25     H25     3.1249   -4.8712   -4.9820 H        1 ZINC000065613806    0.0800
26     H26     3.3102   -2.0942   -2.5893 H        1 ZINC000065613806    0.1500
27     H27     2.5272   -2.2482   -0.2632 H        1 ZINC000065613806    0.1400
28     H28    -1.9351   -4.7050    2.1425 H        1 ZINC000065613806    0.1400
29     H29    -1.8046   -2.1740    2.2547 H        1 ZINC000065613806    0.1100
30     H30    -0.2099   -2.2153    1.3291 H        1 ZINC000065613806    0.0900
31     H31    -1.3730   -3.3401   -0.6245 H        1 ZINC000065613806    0.0900
32     H32    -2.9676   -3.2988    0.3011 H        1 ZINC000065613806    0.1100
33     H33     1.8060   -6.1097   -0.0231 H        1 ZINC000065613806    0.1500
34     H34     1.7985   -7.5889    0.9901 H        1 ZINC000065613806    0.1400
35     H35    -1.3409   -8.0760   -1.3306 H        1 ZINC000065613806    0.4200
36     H36     0.7335   -6.0448   -1.1348 H        1 ZINC000065613806    0.1500
@<TRIPOS>BOND
1     1     2     1
2     1     23    1
3     1     24    1
4     1     25    1
5     2     21    ar
6     2     3     ar
7     3     4     ar
8     3     26    1
9     4     5     ar
10    4     27    1
11    5     6     1
12    5     20    ar
13    6     7     2
14    6     8     am
15    8     9     1
16    8     12    1
17    9     11    1
18    9     10    1
19    9     28    1
20    10    11    1
21    10    29    1
22    10    30    1
23    11    31    1
24    11    32    1
25    12    13    1
26    12    18    1
27    12    14    1
28    14    15    1
29    14    33    1
30    14    34    1
31    15    16    2
32    15    17    am
33    17    18    am
34    17    35    1
35    18    19    2
36    20    21    ar
37    20    36    1
38    21    22    1
@<TRIPOS>SUBSTRUCTURE
1   ZINC000065613806 1     RESIDUE    1   A     ZIN   1
@<TRIPOS>MOLECULE
ZINC000088446303
23    24    1     0     0
SMALL
USER_CHARGES
@<TRIPOS>ATOM
1      O1      0.0019   -0.0040    0.0026 O.2      1 ZINC000088446303   -0.4400
2      C2     -0.0144    1.2110    0.0099 C.2      1 ZINC000088446303    0.5500
3      N3      1.1435    1.9007    0.0013 N.am     1 ZINC000088446303   -0.6500
4      C4      2.3583    1.2238    0.0913 C.ar     1 ZINC000088446303    0.3300
5      C5      3.5489    1.9378    0.1887 C.ar     1 ZINC000088446303    0.0400
6      N6      4.6979    1.2935    0.2737 N.ar     1 ZINC000088446303   -0.3800
7      C7      4.7182   -0.0291    0.2664 C.ar     1 ZINC000088446303    0.0300
8      Br8     6.3664   -0.9481    0.3884 Br       1 ZINC000088446303    0.0200
9      C9      3.5358   -0.7417    0.1701 C.ar     1 ZINC000088446303    0.1300
10     N10     2.3818   -0.1026    0.0897 N.ar     1 ZINC000088446303   -0.4300
11     C11    -1.3070    1.9342    0.0218 C.ar     1 ZINC000088446303   -0.0600
12     C12    -1.3481    3.3324    0.0244 C.ar     1 ZINC000088446303   -0.1600
13     C13    -2.5742    3.9673    0.0358 C.ar     1 ZINC000088446303    0.1400
14     N14    -3.6961    3.2747    0.0445 N.ar     1 ZINC000088446303   -0.4900
15     C15    -3.7037    1.9548    0.0424 C.ar     1 ZINC000088446303    0.3200
16     F16    -4.8824    1.2946    0.0513 F        1 ZINC000088446303   -0.1000
17     C17    -2.5189    1.2383    0.0250 C.ar     1 ZINC000088446303   -0.1300
18     H18     1.1313    2.8681   -0.0674 H        1 ZINC000088446303    0.4200
19     H19     3.5328    3.0177    0.1944 H        1 ZINC000088446303    0.1800
20     H20     3.5559   -1.8215    0.1644 H        1 ZINC000088446303    0.1900
21     H21    -0.4338    3.9071    0.0181 H        1 ZINC000088446303    0.1500
22     H22    -2.6148    5.0465    0.0379 H        1 ZINC000088446303    0.1800
23     H23    -2.5311    0.1584    0.0230 H        1 ZINC000088446303    0.1700
@<TRIPOS>BOND
1     1     2     2
2     2     3     am
3     2     11    1
4     3     4     1
5     3     18    1
6     4     10    ar
7     4     5     ar
8     5     6     ar
9     5     19    1
10    6     7     ar
11    7     8     1
12    7     9     ar
13    9     10    ar
14    9     20    1
15    11    17    ar
16    11    12    ar
17    12    13    ar
18    12    21    1
19    13    14    ar
20    13    22    1
21    14    15    ar
22    15    16    1
23    15    17    ar
24    17    23    1
@<TRIPOS>SUBSTRUCTURE
1   ZINC000088446303 1     RESIDUE    1   A     ZIN   1
@<TRIPOS>MOLECULE
ZINC000089986378
  50   52    0    0    0
SMALL
USER_CHARGES
NO_NAME
@<TRIPOS>ATOM
    1 C1       -0.0187     1.5258     0.0104 C.3    1 <0>      -0.1500
    2 C2        0.0021    -0.0041     0.0020 C.3    1 <0>       0.0600
    3 O3        0.6709    -0.4649    -1.1737 O.3    1 <0>      -0.3500
    4 C4        0.7457    -1.8880    -1.2798 C.3    1 <0>       0.0800
    5 H5        0.6112    -2.3917    -0.3225 H      1 <0>       0.0700
    6 C6       -0.1223    -2.4687    -2.4095 C.3    1 <0>      -0.2000
    7 C7        1.0952    -2.2893    -3.3327 C.3    1 <0>       0.1000
    8 H8        1.2430    -3.1167    -4.0268 H      1 <0>       0.0600
    9 O9        1.1461    -1.0124    -3.9722 O.3    1 <0>      -0.5300
   10 C10       1.9647    -2.3826    -2.0688 C.3    1 <0>      -0.0700
   11 C11       3.1358    -1.4017    -2.0619 C.3    1 <0>      -0.1000
   12 C12       4.2013    -1.8853    -3.0527 C.3    1 <0>       0.1100
   13 N13       4.5302    -3.2840    -2.7475 N.am   1 <0>      -0.6000
   14 C14       5.8043    -3.6489    -2.5030 C.2    1 <0>       0.5900
   15 O15       6.6916    -2.8178    -2.5342 O.2    1 <0>      -0.5300
   16 C16       6.1224    -5.0553    -2.1979 C.2    1 <0>      -0.2200
   17 C17       6.4531    -6.0371    -3.0854 C.2    1 <0>       0.0400
   18 C18       6.5604    -5.8751    -4.5798 C.3    1 <0>      -0.0800
   19 O19       6.6657    -7.1672    -2.4042 O.3    1 <0>      -0.1700
   20 C20       6.4879    -6.9738    -1.0880 C.2    1 <0>      -0.0100
   21 C21       6.6434    -8.0268    -0.0212 C.3    1 <0>      -0.0700
   22 C22       6.1560    -5.6916    -0.8730 C.2    1 <0>      -0.1500
   23 C23       5.8660    -5.0396     0.4544 C.3    1 <0>      -0.0800
   24 C24       3.4503    -4.2790    -2.7122 C.3    1 <0>       0.1100
   25 C25       2.3799    -3.8105    -1.7195 C.3    1 <0>      -0.1100
   26 H26       1.0039     1.9031     0.0027 H      1 <0>       0.0600
   27 H27      -0.5459     1.8868    -0.8726 H      1 <0>       0.0600
   28 H28      -0.5289     1.8773     0.9072 H      1 <0>       0.0700
   29 H29       0.5293    -0.3651     0.8851 H      1 <0>       0.0500
   30 H30      -1.0205    -0.3814     0.0098 H      1 <0>       0.0500
   31 H31      -0.4020    -3.5106    -2.2535 H      1 <0>       0.0900
   32 H32      -0.9697    -1.8375    -2.6772 H      1 <0>       0.0800
   33 H33       0.5646    -0.9340    -4.7409 H      1 <0>       0.3800
   34 H34       2.7848    -0.4131    -2.3579 H      1 <0>       0.1000
   35 H35       3.5643    -1.3528    -1.0609 H      1 <0>       0.0600
   36 H36       3.8142    -1.8143    -4.0691 H      1 <0>       0.0700
   37 H37       5.0959    -1.2701    -2.9563 H      1 <0>       0.0900
   38 H38       7.5793    -5.5902    -4.8421 H      1 <0>       0.0900
   39 H39       6.3100    -6.8178    -5.0663 H      1 <0>       0.0800
   40 H40       5.8695    -5.1002    -4.9118 H      1 <0>       0.0900
   41 H41       6.9230    -8.9736    -0.4833 H      1 <0>       0.0800
   42 H42       7.4199    -7.7216     0.6802 H      1 <0>       0.0900
   43 H43       5.6998    -8.1469     0.5111 H      1 <0>       0.0900
   44 H44       6.7904    -4.6420     0.8734 H      1 <0>       0.0700
   45 H45       5.1527    -4.2278     0.3123 H      1 <0>       0.0600
   46 H46       5.4453    -5.7775     1.1374 H      1 <0>       0.0700
   47 H47       3.0106    -4.3765    -3.7048 H      1 <0>       0.0700
   48 H48       3.8502    -5.2410    -2.3914 H      1 <0>       0.0900
   49 H49       2.7853    -3.8351    -0.7080 H      1 <0>       0.0800
   50 H50       1.5126    -4.4678    -1.7817 H      1 <0>       0.0800
@<TRIPOS>BOND
   1    1    2 1
   2    1   26 1
   3    1   27 1
   4    1   28 1
   5    2    3 1
   6    2   29 1
   7    2   30 1
   8    3    4 1
   9    4    5 1
  10    4   10 1
  11    4    6 1
  12    6    7 1
  13    6   31 1
  14    6   32 1
  15    7    8 1
  16    7    9 1
  17    7   10 1
  18    9   33 1
  19   10   25 1
  20   10   11 1
  21   11   12 1
  22   11   34 1
  23   11   35 1
  24   12   13 1
  25   12   36 1
  26   12   37 1
  27   13   14 am
  28   13   24 1
  29   14   15 2
  30   14   16 1
  31   16   22 1
  32   16   17 2
  33   17   18 1
  34   17   19 1
  35   18   38 1
  36   18   39 1
  37   18   40 1
  38   19   20 1
  39   20   21 1
  40   20   22 2
  41   21   41 1
  42   21   42 1
  43   21   43 1
  44   22   23 1
  45   23   44 1
  46   23   45 1
  47   23   46 1
  48   24   25 1
  49   24   47 1
  50   24   48 1
  51   25   49 1
  52   25   50 1
@<TRIPOS>MOLECULE
ZINC000091464065
47    49    1     0     0
SMALL
USER_CHARGES
@<TRIPOS>ATOM
1      C1      0.1686    1.5611    0.0133 C.3      1 ZINC000091464065    0.0700
2      N2      0.2934    0.1026    0.0714 N.am     1 ZINC000091464065   -0.6100
3      C3      0.4802   -0.5657    1.3617 C.3      1 ZINC000091464065    0.1300
4      C4     -0.8851   -0.9149    1.9574 C.3      1 ZINC000091464065   -0.1300
5      C5     -1.4276   -2.2783    1.4972 C.3      1 ZINC000091464065   -0.1100
6      C6     -1.9183   -2.4819    2.9403 C.3      1 ZINC000091464065    0.0700
7      O7     -1.7367   -3.8142    3.4241 O.3      1 ZINC000091464065   -0.5600
8      C8     -0.8053   -1.5126    3.3721 C.3      1 ZINC000091464065   -0.1600
9      C9      0.2365   -0.6243   -1.0620 C.2      1 ZINC000091464065    0.5200
10     O10     0.3398   -1.8318   -1.0139 O.2      1 ZINC000091464065   -0.5200
11     C11     0.0444    0.0632   -2.3893 C.3      1 ZINC000091464065   -0.1300
12     H12    -0.8863    0.6303   -2.4014 H        1 ZINC000091464065    0.1200
13     C13     1.2506    0.9720   -2.7214 C.3      1 ZINC000091464065   -0.1500
14     C14     2.1610    0.0923   -3.5496 C.2      1 ZINC000091464065    0.5200
15     O15     3.3299    0.3217   -3.7772 O.2      1 ZINC000091464065   -0.5300
16     N16     1.4859   -0.9809   -3.9962 N.am     1 ZINC000091464065   -0.6000
17     C17     2.0706   -2.0406   -4.8217 C.3      1 ZINC000091464065    0.1500
18     C18     1.8511   -3.4133   -4.1529 C.3      1 ZINC000091464065   -0.1400
19     C19     0.5716   -3.9651   -4.8293 C.3      1 ZINC000091464065   -0.1300
20     C20     0.7355   -3.5034   -6.2986 C.3      1 ZINC000091464065   -0.1200
21     C21     1.3613   -2.0979   -6.1860 C.3      1 ZINC000091464065   -0.1400
22     C22     0.0868   -0.9548   -3.5504 C.3      1 ZINC000091464065    0.1100
23     H23     1.1566    2.0059   -0.1056 H        1 ZINC000091464065    0.0600
24     H24    -0.4590    1.8386   -0.8336 H        1 ZINC000091464065    0.0800
25     H25    -0.2846    1.9241    0.9357 H        1 ZINC000091464065    0.0800
26     H26     1.0580   -1.4786    1.2177 H        1 ZINC000091464065    0.0900
27     H27     1.0139    0.0988    2.0412 H        1 ZINC000091464065    0.0800
28     H28    -1.6068   -0.1031    1.8665 H        1 ZINC000091464065    0.0900
29     H29    -2.2344   -2.2036    0.7681 H        1 ZINC000091464065    0.0700
30     H30    -0.6487   -2.9796    1.1978 H        1 ZINC000091464065    0.1000
31     H31    -2.9240   -2.1007    3.1173 H        1 ZINC000091464065    0.0800
32     H32    -2.0434   -3.9485    4.3312 H        1 ZINC000091464065    0.3800
33     H33     0.1437   -2.0046    3.5853 H        1 ZINC000091464065    0.0900
34     H34    -1.1097   -0.8198    4.1566 H        1 ZINC000091464065    0.0700
35     H35     0.9279    1.8381   -3.2992 H        1 ZINC000091464065    0.1200
36     H36     1.7534    1.2878   -1.8073 H        1 ZINC000091464065    0.1100
37     H37     3.1362   -1.8590   -4.9622 H        1 ZINC000091464065    0.1000
38     H38     2.6985   -4.0713   -4.3454 H        1 ZINC000091464065    0.0800
39     H39     1.6949   -3.2946   -3.0807 H        1 ZINC000091464065    0.0800
40     H40     0.5404   -5.0529   -4.7673 H        1 ZINC000091464065    0.0700
41     H41    -0.3210   -3.5260   -4.3836 H        1 ZINC000091464065    0.0700
42     H42     1.4027   -4.1760   -6.8377 H        1 ZINC000091464065    0.0700
43     H43    -0.2348   -3.4505   -6.7924 H        1 ZINC000091464065    0.0700
44     H44     0.5820   -1.3373   -6.2339 H        1 ZINC000091464065    0.0700
45     H45     2.0828   -1.9450   -6.9886 H        1 ZINC000091464065    0.0700
46     H46    -0.2155   -1.9413   -3.1989 H        1 ZINC000091464065    0.1000
47     H47    -0.5620   -0.6280   -4.3631 H        1 ZINC000091464065    0.0800
@<TRIPOS>BOND
1     1     2     1
2     1     23    1
3     1     24    1
4     1     25    1
5     2     3     1
6     2     9     am
7     3     4     1
8     3     26    1
9     3     27    1
10    4     8     1
11    4     5     1
12    4     28    1
13    5     6     1
14    5     29    1
15    5     30    1
16    6     7     1
17    6     8     1
18    6     31    1
19    7     32    1
20    8     33    1
21    8     34    1
22    9     10    2
23    9     11    1
24    11    12    1
25    11    22    1
26    11    13    1
27    13    14    1
28    13    35    1
29    13    36    1
30    14    15    2
31    14    16    am
32    16    17    1
33    16    22    1
34    17    21    1
35    17    18    1
36    17    37    1
37    18    19    1
38    18    38    1
39    18    39    1
40    19    20    1
41    19    40    1
42    19    41    1
43    20    21    1
44    20    42    1
45    20    43    1
46    21    44    1
47    21    45    1
48    22    46    1
49    22    47    1
@<TRIPOS>SUBSTRUCTURE
1   ZINC000091464065 1     RESIDUE    1   A     ZIN   1
@<TRIPOS>MOLECULE
ZINC000091687444
  31   33    0    0    0
SMALL
USER_CHARGES
NO_NAME
@<TRIPOS>ATOM
    1 O1        0.0021    -0.0041     0.0020 O.2    1 <0>      -0.5700
    2 C2       -0.0145     1.2156     0.0087 C.2    1 <0>       0.5100
    3 N3       -1.1844     1.8894     0.0292 N.pl3  1 <0>      -0.6200
    4 C4       -1.1840     3.2371     0.0363 C.2    1 <0>       0.3400
    5 C5       -2.4986     3.9737     0.0591 C.3    1 <0>       0.1700
    6 H6       -3.1635     3.5166     0.7920 H      1 <0>       0.0900
    7 C7       -2.2620     5.4407     0.4210 C.3    1 <0>      -0.0300
    8 N8       -3.4995     6.1973     0.3747 N.4    1 <0>      -0.3800
    9 H9       -3.2934     7.1747     0.5172 H      1 <0>       0.4300
   10 C10      -4.4684     5.7573     1.3999 C.3    1 <0>      -0.0200
   11 C11      -5.8092     6.3699     0.9311 C.3    1 <0>      -0.1500
   12 C12      -5.6386     6.5940    -0.5868 C.3    1 <0>      -0.1400
   13 C13      -4.2293     6.0421    -0.9002 C.3    1 <0>      -0.0100
   14 H14      -3.7394     6.6144    -1.6879 H      1 <0>       0.1500
   15 C15      -4.4018     4.5737    -1.2983 C.3    1 <0>       0.0500
   16 O16      -3.1029     3.9248    -1.2390 O.3    1 <0>      -0.3500
   17 N17      -0.0703     3.9195     0.0242 N.2    1 <0>      -0.6200
   18 C18       1.1195     3.3135     0.0039 C.2    1 <0>       0.1800
   19 C19       1.1887     1.9528     0.0012 C.2    1 <0>      -0.3200
   20 Br20      2.8613     1.0710    -0.0269 Br     1 <0>      -0.0600
   21 H21      -1.8452     5.4982     1.4265 H      1 <0>       0.1400
   22 H22      -1.5522     5.8729    -0.2844 H      1 <0>       0.1500
   23 H23      -4.5324     4.6695     1.4237 H      1 <0>       0.1300
   24 H24      -4.1917     6.1467     2.3796 H      1 <0>       0.1400
   25 H25      -6.6291     5.6774     1.1218 H      1 <0>       0.1100
   26 H26      -5.9890     7.3190     1.4361 H      1 <0>       0.1000
   27 H27      -6.3896     6.0303    -1.1403 H      1 <0>       0.1100
   28 H28      -5.7087     7.6556    -0.8238 H      1 <0>       0.1000
   29 H29      -5.1006     4.0948    -0.6124 H      1 <0>       0.0800
   30 H30      -4.7998     4.5202    -2.3117 H      1 <0>       0.1400
   31 H31       2.0256     3.9011    -0.0057 H      1 <0>       0.1400
@<TRIPOS>BOND
   1    1    2 2
   2    2   19 1
   3    2    3 1
   4    3    4 1
   5    4    5 1
   6    4   17 2
   7    5    6 1
   8    5   16 1
   9    5    7 1
  10    7    8 1
  11    7   21 1
  12    7   22 1
  13    8    9 1
  14    8   13 1
  15    8   10 1
  16   10   11 1
  17   10   23 1
  18   10   24 1
  19   11   12 1
  20   11   25 1
  21   11   26 1
  22   12   13 1
  23   12   27 1
  24   12   28 1
  25   13   14 1
  26   13   15 1
  27   15   16 1
  28   15   29 1
  29   15   30 1
  30   17   18 1
  31   18   19 2
  32   18   31 1
  33   19   20 1

@<TRIPOS>MOLECULE
ZINC000091687444
  30   32    0    0    0
SMALL
USER_CHARGES
NO_NAME
@<TRIPOS>ATOM
    1 O1        0.0021    -0.0041     0.0020 O.2    1 <0>      -0.5900
    2 C2       -0.0145     1.2156     0.0087 C.2    1 <0>       0.5100
    3 N3       -1.1844     1.8894     0.0292 N.pl3  1 <0>      -0.6300
    4 C4       -1.1840     3.2371     0.0363 C.2    1 <0>       0.3600
    5 C5       -2.4986     3.9737     0.0591 C.3    1 <0>       0.1800
    6 H6       -3.1562     3.5098     0.7942 H      1 <0>       0.0800
    7 C7       -2.2503     5.4385     0.4563 C.3    1 <0>       0.0500
    8 N8       -3.5171     6.1435     0.3364 N.3    1 <0>      -0.5500
    9 C9       -3.5604     7.5523     0.7213 C.3    1 <0>       0.0500
   10 C10      -4.6950     8.1855    -0.1222 C.3    1 <0>      -0.1300
   11 C11      -5.1835     7.0450    -1.0583 C.3    1 <0>      -0.1100
   12 C12      -3.9635     6.1087    -1.0834 C.3    1 <0>       0.0300
   13 H13      -3.1899     6.4924    -1.7485 H      1 <0>       0.0600
   14 C14      -4.3038     4.6628    -1.4207 C.3    1 <0>       0.0800
   15 O15      -3.1044     3.8916    -1.2298 O.3    1 <0>      -0.3800
   16 N16      -0.0703     3.9195     0.0242 N.2    1 <0>      -0.6100
   17 C17       1.1195     3.3135     0.0039 C.2    1 <0>       0.1800
   18 C18       1.1887     1.9528     0.0012 C.2    1 <0>      -0.3300
   19 Br19      2.8613     1.0710    -0.0269 Br     1 <0>      -0.0900
   20 H20      -1.8948     5.4880     1.4855 H      1 <0>       0.0800
   21 H21      -1.5138     5.8838    -0.2126 H      1 <0>       0.0600
   22 H22      -3.7851     7.6452     1.7838 H      1 <0>       0.0800
   23 H23      -2.6093     8.0337     0.4939 H      1 <0>       0.0400
   24 H24      -5.5068     8.5190     0.5242 H      1 <0>       0.0700
   25 H25      -4.3104     9.0192    -0.7097 H      1 <0>       0.0700
   26 H26      -6.0529     6.5405    -0.6366 H      1 <0>       0.0800
   27 H27      -5.4022     7.4265    -2.0557 H      1 <0>       0.0700
   28 H28      -5.0812     4.2981    -0.7493 H      1 <0>       0.0600
   29 H29      -4.6420     4.5924    -2.4545 H      1 <0>       0.1000
   30 H30       2.0256     3.9011    -0.0057 H      1 <0>       0.1300
@<TRIPOS>BOND
   1    1    2 2
   2    2   18 1
   3    2    3 1
   4    3    4 1
   5    4    5 1
   6    4   16 2
   7    5    6 1
   8    5   15 1
   9    5    7 1
  10    7    8 1
  11    7   20 1
  12    7   21 1
  13    8   12 1
  14    8    9 1
  15    9   10 1
  16    9   22 1
  17    9   23 1
  18   10   11 1
  19   10   24 1
  20   10   25 1
  21   11   12 1
  22   11   26 1
  23   11   27 1
  24   12   13 1
  25   12   14 1
  26   14   15 1
  27   14   28 1
  28   14   29 1
  29   16   17 1
  30   17   18 2
  31   17   30 1
  32   18   19 1

@<TRIPOS>MOLECULE
ZINC000091687444
  31   33    0    0    0
SMALL
USER_CHARGES
NO_NAME
@<TRIPOS>ATOM
    1 O1        0.0021    -0.0041     0.0020 O.2    1 <0>      -0.5700
    2 C2       -0.0145     1.2156     0.0087 C.2    1 <0>       0.5100
    3 N3       -1.1844     1.8894     0.0292 N.pl3  1 <0>      -0.6200
    4 C4       -1.1840     3.2371     0.0363 C.2    1 <0>       0.3400
    5 C5       -2.4986     3.9737     0.0591 C.3    1 <0>       0.1600
    6 H6       -3.1559     3.5095     0.7943 H      1 <0>       0.1000
    7 C7       -2.2498     5.4378     0.4577 C.3    1 <0>      -0.0200
    8 N8       -3.5196     6.1404     0.3518 N.4    1 <0>      -0.4000
    9 H9       -4.2126     5.6596     0.9056 H      1 <0>       0.4200
   10 C10      -3.5204     7.5583     0.7071 C.3    1 <0>      -0.0100
   11 C11      -4.6284     8.2085    -0.1590 C.3    1 <0>      -0.1400
   12 C12      -5.1394     7.0653    -1.0807 C.3    1 <0>      -0.1400
   13 C13      -3.9353     6.1147    -1.0779 C.3    1 <0>      -0.0100
   14 H14      -3.1479     6.4829    -1.7355 H      1 <0>       0.1500
   15 C15      -4.2801     4.6684    -1.4037 C.3    1 <0>       0.0500
   16 O16      -3.1045     3.8901    -1.2296 O.3    1 <0>      -0.3400
   17 N17      -0.0703     3.9195     0.0242 N.2    1 <0>      -0.6200
   18 C18       1.1195     3.3135     0.0039 C.2    1 <0>       0.1800
   19 C19       1.1887     1.9528     0.0012 C.2    1 <0>      -0.3200
   20 Br20      2.8613     1.0710    -0.0269 Br     1 <0>      -0.0600
   21 H21      -1.8847     5.4855     1.4836 H      1 <0>       0.1400
   22 H22      -1.5208     5.8866    -0.2170 H      1 <0>       0.1500
   23 H23      -3.7499     7.6808     1.7656 H      1 <0>       0.1300
   24 H24      -2.5528     8.0043     0.4771 H      1 <0>       0.1300
   25 H25      -5.4370     8.5757     0.4730 H      1 <0>       0.1000
   26 H26      -4.2147     9.0207    -0.7566 H      1 <0>       0.1000
   27 H27      -6.0264     6.5920    -0.6596 H      1 <0>       0.1000
   28 H28      -5.3369     7.4346    -2.0870 H      1 <0>       0.1200
   29 H29      -5.0568     4.3102    -0.7280 H      1 <0>       0.0800
   30 H30      -4.6198     4.5909    -2.4365 H      1 <0>       0.1400
   31 H31       2.0256     3.9011    -0.0057 H      1 <0>       0.1400
@<TRIPOS>BOND
   1    1    2 2
   2    2   19 1
   3    2    3 1
   4    3    4 1
   5    4    5 1
   6    4   17 2
   7    5    6 1
   8    5   16 1
   9    5    7 1
  10    7    8 1
  11    7   21 1
  12    7   22 1
  13    8    9 1
  14    8   13 1
  15    8   10 1
  16   10   11 1
  17   10   23 1
  18   10   24 1
  19   11   12 1
  20   11   25 1
  21   11   26 1
  22   12   13 1
  23   12   27 1
  24   12   28 1
  25   13   14 1
  26   13   15 1
  27   15   16 1
  28   15   29 1
  29   15   30 1
  30   17   18 1
  31   18   19 2
  32   18   31 1
  33   19   20 1

@<TRIPOS>MOLECULE
ZINC000091687444
  32   34    0    0    0
SMALL
USER_CHARGES
NO_NAME
@<TRIPOS>ATOM
    1 O1        0.0021    -0.0041     0.0020 O.2    1 <0>      -0.4800
    2 C2       -0.0145     1.2156     0.0087 C.2    1 <0>       0.5300
    3 N3       -1.1844     1.8894     0.0292 N.am   1 <0>      -0.6100
    4 C4       -1.1840     3.2371     0.0363 C.2    1 <0>       0.4000
    5 C5       -2.4986     3.9737     0.0591 C.3    1 <0>       0.1200
    6 H6       -3.1559     3.5095     0.7943 H      1 <0>       0.1200
    7 C7       -2.2498     5.4378     0.4577 C.3    1 <0>      -0.0200
    8 N8       -3.5196     6.1404     0.3518 N.4    1 <0>      -0.4000
    9 H9       -4.2126     5.6596     0.9056 H      1 <0>       0.4200
   10 C10      -3.5204     7.5583     0.7071 C.3    1 <0>      -0.0100
   11 C11      -4.6284     8.2085    -0.1590 C.3    1 <0>      -0.1400
   12 C12      -5.1394     7.0653    -1.0807 C.3    1 <0>      -0.1400
   13 C13      -3.9353     6.1147    -1.0779 C.3    1 <0>      -0.0100
   14 H14      -3.1479     6.4829    -1.7355 H      1 <0>       0.1600
   15 C15      -4.2801     4.6684    -1.4037 C.3    1 <0>       0.0500
   16 O16      -3.1045     3.8901    -1.2296 O.3    1 <0>      -0.3500
   17 N17      -0.0703     3.9195     0.0242 N.2    1 <0>      -0.5200
   18 C18       1.1195     3.3135     0.0039 C.2    1 <0>       0.1800
   19 C19       1.1887     1.9528     0.0012 C.2    1 <0>      -0.2400
   20 Br20      2.8613     1.0710    -0.0269 Br     1 <0>       0.0300
   21 H21      -2.0242     1.4040     0.0384 H      1 <0>       0.4300
   22 H22      -1.8847     5.4855     1.4836 H      1 <0>       0.1500
   23 H23      -1.5208     5.8866    -0.2170 H      1 <0>       0.1600
   24 H24      -3.7499     7.6808     1.7656 H      1 <0>       0.1400
   25 H25      -2.5528     8.0043     0.4771 H      1 <0>       0.1400
   26 H26      -5.4370     8.5757     0.4730 H      1 <0>       0.1100
   27 H27      -4.2147     9.0207    -0.7566 H      1 <0>       0.1100
   28 H28      -6.0264     6.5920    -0.6596 H      1 <0>       0.1000
   29 H29      -5.3369     7.4346    -2.0870 H      1 <0>       0.1200
   30 H30      -5.0568     4.3102    -0.7280 H      1 <0>       0.0900
   31 H31      -4.6198     4.5909    -2.4365 H      1 <0>       0.1500
   32 H32       2.0256     3.9011    -0.0057 H      1 <0>       0.1900
@<TRIPOS>BOND
   1    1    2 2
   2    2   19 1
   3    2    3 am
   4    3    4 1
   5    3   21 1
   6    4    5 1
   7    4   17 2
   8    5    6 1
   9    5   16 1
  10    5    7 1
  11    7    8 1
  12    7   22 1
  13    7   23 1
  14    8    9 1
  15    8   13 1
  16    8   10 1
  17   10   11 1
  18   10   24 1
  19   10   25 1
  20   11   12 1
  21   11   26 1
  22   11   27 1
  23   12   13 1
  24   12   28 1
  25   12   29 1
  26   13   14 1
  27   13   15 1
  28   15   16 1
  29   15   30 1
  30   15   31 1
  31   17   18 1
  32   18   19 2
  33   18   32 1
  34   19   20 1

@<TRIPOS>MOLECULE
ZINC000091687444
  32   34    0    0    0
SMALL
USER_CHARGES
NO_NAME
@<TRIPOS>ATOM
    1 O1        0.0021    -0.0041     0.0020 O.2    1 <0>      -0.4800
    2 C2       -0.0145     1.2156     0.0087 C.2    1 <0>       0.5300
    3 N3       -1.1844     1.8894     0.0292 N.am   1 <0>      -0.6100
    4 C4       -1.1840     3.2371     0.0363 C.2    1 <0>       0.4000
    5 C5       -2.4986     3.9737     0.0591 C.3    1 <0>       0.1300
    6 H6       -3.1635     3.5166     0.7920 H      1 <0>       0.1200
    7 C7       -2.2620     5.4407     0.4210 C.3    1 <0>      -0.0300
    8 N8       -3.4995     6.1973     0.3747 N.4    1 <0>      -0.3800
    9 H9       -3.2934     7.1747     0.5172 H      1 <0>       0.4400
   10 C10      -4.4684     5.7573     1.3999 C.3    1 <0>      -0.0200
   11 C11      -5.8092     6.3699     0.9311 C.3    1 <0>      -0.1500
   12 C12      -5.6386     6.5940    -0.5868 C.3    1 <0>      -0.1400
   13 C13      -4.2293     6.0421    -0.9002 C.3    1 <0>      -0.0100
   14 H14      -3.7394     6.6144    -1.6879 H      1 <0>       0.1600
   15 C15      -4.4018     4.5737    -1.2983 C.3    1 <0>       0.0500
   16 O16      -3.1029     3.9248    -1.2390 O.3    1 <0>      -0.3500
   17 N17      -0.0703     3.9195     0.0242 N.2    1 <0>      -0.5100
   18 C18       1.1195     3.3135     0.0039 C.2    1 <0>       0.1900
   19 C19       1.1887     1.9528     0.0012 C.2    1 <0>      -0.2400
   20 Br20      2.8613     1.0710    -0.0269 Br     1 <0>       0.0300
   21 H21      -2.0242     1.4040     0.0384 H      1 <0>       0.4300
   22 H22      -1.8452     5.4982     1.4265 H      1 <0>       0.1500
   23 H23      -1.5522     5.8729    -0.2844 H      1 <0>       0.1600
   24 H24      -4.5324     4.6695     1.4237 H      1 <0>       0.1300
   25 H25      -4.1917     6.1467     2.3796 H      1 <0>       0.1400
   26 H26      -6.6291     5.6774     1.1218 H      1 <0>       0.1100
   27 H27      -5.9890     7.3190     1.4361 H      1 <0>       0.1100
   28 H28      -6.3896     6.0303    -1.1403 H      1 <0>       0.1200
   29 H29      -5.7087     7.6556    -0.8238 H      1 <0>       0.1100
   30 H30      -5.1006     4.0948    -0.6124 H      1 <0>       0.0900
   31 H31      -4.7998     4.5202    -2.3117 H      1 <0>       0.1500
   32 H32       2.0256     3.9011    -0.0057 H      1 <0>       0.1900
@<TRIPOS>BOND
   1    1    2 2
   2    2   19 1
   3    2    3 am
   4    3    4 1
   5    3   21 1
   6    4    5 1
   7    4   17 2
   8    5    6 1
   9    5   16 1
  10    5    7 1
  11    7    8 1
  12    7   22 1
  13    7   23 1
  14    8    9 1
  15    8   13 1
  16    8   10 1
  17   10   11 1
  18   10   24 1
  19   10   25 1
  20   11   12 1
  21   11   26 1
  22   11   27 1
  23   12   13 1
  24   12   28 1
  25   12   29 1
  26   13   14 1
  27   13   15 1
  28   15   16 1
  29   15   30 1
  30   15   31 1
  31   17   18 1
  32   18   19 2
  33   18   32 1
  34   19   20 1
@<TRIPOS>MOLECULE
ZINC000092237997
  37   39    0    0    0
SMALL
USER_CHARGES
NO_NAME
@<TRIPOS>ATOM
    1 C1        0.2720     1.5477    -0.1208 C.3    1 <0>       0.0700
    2 N2        0.0727     0.0973    -0.0656 N.am   1 <0>      -0.5800
    3 C3        0.0190    -0.5307     1.1257 C.2    1 <0>       0.5500
    4 O4       -0.1460    -1.7314     1.1713 O.2    1 <0>      -0.5300
    5 C5        0.1640     0.2590     2.4010 C.3    1 <0>      -0.0800
    6 H6       -0.6241     1.0104     2.4504 H      1 <0>       0.1300
    7 C7        1.5368     0.9599     2.4123 C.3    1 <0>      -0.0800
    8 S8        2.5632    -0.2894     3.2756 S.3    1 <0>      -0.1500
    9 C9        1.2362    -1.0698     4.1579 C.ar   1 <0>      -0.0700
   10 C10       1.2594    -1.9371     5.2410 C.ar   1 <0>      -0.0900
   11 C11       0.0782    -2.4193     5.7690 C.ar   1 <0>      -0.1000
   12 C12      -1.1234    -2.0281     5.2074 C.ar   1 <0>      -0.1200
   13 C13      -1.1462    -1.1692     4.1308 C.ar   1 <0>      -0.0700
   14 C14       0.0384    -0.6728     3.5809 C.ar   1 <0>      -0.0700
   15 C15      -0.0682    -0.6703    -1.3054 C.3    1 <0>       0.1300
   16 H16      -0.0384    -1.7398    -1.0967 H      1 <0>       0.1000
   17 C17       1.0395    -0.2838    -2.3103 C.3    1 <0>       0.0400
   18 O18       0.3924    -0.3103    -3.6011 O.3    1 <0>      -0.3800
   19 C19      -0.9097     0.2763    -3.3861 C.3    1 <0>       0.0600
   20 C20      -1.3819    -0.2961    -2.0276 C.3    1 <0>      -0.2100
   21 H21      -2.0023    -1.1792    -2.1801 H      1 <0>       0.0800
   22 C22      -2.1367     0.7495    -1.2477 C.2    1 <0>       0.5100
   23 O23      -2.3220     1.8539    -1.7298 O.co2  1 <0>      -0.7000
   24 O24      -2.5620     0.4910    -0.1347 O.co2  1 <0>      -0.6800
   25 H25       1.3374     1.7704    -0.0639 H      1 <0>       0.0500
   26 H26      -0.1307     1.9344    -1.0569 H      1 <0>       0.0900
   27 H27      -0.2426     2.0173     0.7176 H      1 <0>       0.0700
   28 H28       1.8980     1.1317     1.3983 H      1 <0>       0.1200
   29 H29       1.4968     1.8921     2.9758 H      1 <0>       0.1100
   30 H30       2.2036    -2.2360     5.6717 H      1 <0>       0.1200
   31 H31       0.0926    -3.0950     6.6113 H      1 <0>       0.1300
   32 H32      -2.0516    -2.3993     5.6161 H      1 <0>       0.1300
   33 H33      -2.0944    -0.8754     3.7054 H      1 <0>       0.1300
   34 H34       1.4153     0.7164    -2.0946 H      1 <0>       0.0600
   35 H35       1.8515    -1.0103    -2.2779 H      1 <0>       0.0900
   36 H36      -0.8329     1.3624    -3.3355 H      1 <0>       0.0800
   37 H37      -1.5951    -0.0199    -4.1802 H      1 <0>       0.0800
@<TRIPOS>BOND
   1    1    2 1
   2    1   25 1
   3    1   26 1
   4    1   27 1
   5    2    3 am
   6    2   15 1
   7    3    4 2
   8    3    5 1
   9    5    6 1
  10    5   14 1
  11    5    7 1
  12    7    8 1
  13    7   28 1
  14    7   29 1
  15    8    9 1
  16    9   14 ar
  17    9   10 ar
  18   10   11 ar
  19   10   30 1
  20   11   12 ar
  21   11   31 1
  22   12   13 ar
  23   12   32 1
  24   13   14 ar
  25   13   33 1
  26   15   16 1
  27   15   20 1
  28   15   17 1
  29   17   18 1
  30   17   34 1
  31   17   35 1
  32   18   19 1
  33   19   20 1
  34   19   36 1
  35   19   37 1
  36   20   21 1
  37   20   22 1
  38   22   23 ar
  39   22   24 ar
@<TRIPOS>MOLECULE
ZINC000095080357
29    30    1     0     0
SMALL
USER_CHARGES
@<TRIPOS>ATOM
1      C1     -0.0184    1.5028    0.0103 C.3      1 ZINC000095080357   -0.0600
2      C2      0.0021   -0.0041    0.0020 C.2      1 ZINC000095080357    0.2500
3      N3     -1.0538   -0.7608    0.0028 N.2      1 ZINC000095080357   -0.4700
4      C4     -0.6600   -2.0632   -0.0066 C.ar     1 ZINC000095080357    0.0400
5      C5     -1.3447   -3.2792   -0.0098 C.ar     1 ZINC000095080357    0.0000
6      C6     -2.8515   -3.2992   -0.0030 C.3      1 ZINC000095080357   -0.0800
7      C7     -3.3680   -3.2984   -1.4432 C.3      1 ZINC000095080357   -0.0900
8      C8     -4.8979   -3.3187   -1.4363 C.3      1 ZINC000095080357   -0.6700
9      S9     -5.5103   -3.3178   -3.1438 S.o2     1 ZINC000095080357    2.6400
10     O10    -6.9646   -3.3372   -3.1205 O.co2    1 ZINC000095080357   -1.0700
11     O11    -5.0364   -2.1154   -3.8114 O.co2    1 ZINC000095080357   -1.0700
12     O12    -5.0048   -4.5001   -3.8240 O.co2    1 ZINC000095080357   -1.0600
13     C13    -0.6369   -4.4618   -0.0197 C.ar     1 ZINC000095080357   -0.0400
14     Cl14   -1.4863   -5.9757   -0.0243 Cl       1 ZINC000095080357   -0.0500
15     C15     0.7509   -4.4494   -0.0264 C.ar     1 ZINC000095080357   -0.0800
16     C16     1.4397   -3.2543   -0.0233 C.ar     1 ZINC000095080357   -0.0900
17     C17     0.7434   -2.0557   -0.0134 C.ar     1 ZINC000095080357    0.0100
18     O18     1.1138   -0.7560   -0.0131 O.3      1 ZINC000095080357   -0.2100
19     H19     1.0042    1.8801    0.0026 H        1 ZINC000095080357    0.0900
20     H20    -0.5455    1.8639   -0.8728 H        1 ZINC000095080357    0.1100
21     H21    -0.5286    1.8543    0.9071 H        1 ZINC000095080357    0.1000
22     H22    -3.2007   -4.1966    0.5077 H        1 ZINC000095080357    0.0800
23     H23    -3.2242   -2.4168    0.5171 H        1 ZINC000095080357    0.0800
24     H24    -3.0189   -2.4010   -1.9540 H        1 ZINC000095080357    0.0700
25     H25    -2.9953   -4.1808   -1.9634 H        1 ZINC000095080357    0.0700
26     H26    -5.2470   -4.2161   -0.9256 H        1 ZINC000095080357    0.1000
27     H27    -5.2706   -2.4363   -0.9162 H        1 ZINC000095080357    0.1000
28     H28     1.2954   -5.3821   -0.0338 H        1 ZINC000095080357    0.1500
29     H29     2.5197   -3.2525   -0.0290 H        1 ZINC000095080357    0.1400
@<TRIPOS>BOND
1     1     2     1
2     1     19    1
3     1     20    1
4     1     21    1
5     2     18    1
6     2     3     2
7     3     4     1
8     4     17    ar
9     4     5     ar
10    5     6     1
11    5     13    ar
12    6     7     1
13    6     22    1
14    6     23    1
15    7     8     1
16    7     24    1
17    7     25    1
18    8     9     1
19    8     26    1
20    8     27    1
21    9     10    ar
22    9     11    ar
23    9     12    ar
24    13    14    1
25    13    15    ar
26    15    16    ar
27    15    28    1
28    16    17    ar
29    16    29    1
30    17    18    1
@<TRIPOS>SUBSTRUCTURE
1   ZINC000095080357 1     RESIDUE    1   A     ZIN   1
@<TRIPOS>MOLECULE
ZINC000095408000
  47   49    0    0    0
SMALL
USER_CHARGES
NO_NAME
@<TRIPOS>ATOM
    1 C1       -0.0207     1.5884     0.0807 C.3    1 <0>      -0.1500
    2 C2        0.0121     0.0588     0.0642 C.3    1 <0>       0.0600
    3 O3       -1.3246    -0.4463     0.0601 O.3    1 <0>      -0.3700
    4 C4       -1.4069    -1.8728     0.0448 C.3    1 <0>       0.0800
    5 H5       -0.4907    -2.3535     0.3877 H      1 <0>       0.0900
    6 C6       -1.9461    -2.4453    -1.2775 C.3    1 <0>      -0.1900
    7 C7       -2.7400    -3.4530    -0.4284 C.3    1 <0>       0.0900
    8 H8       -3.7493    -3.6356    -0.7971 H      1 <0>       0.0700
    9 O9       -2.0238    -4.6580    -0.1510 O.3    1 <0>      -0.5500
   10 C10      -2.6755    -2.4227     0.7090 C.3    1 <0>      -0.0600
   11 C11      -2.4269    -3.0460     2.0813 C.3    1 <0>      -0.1100
   12 C12      -3.7033    -3.7550     2.5492 C.3    1 <0>       0.1200
   13 N13      -4.8262    -2.8119     2.4634 N.am   1 <0>      -0.6000
   14 C14      -5.5855    -2.5526     3.5463 C.2    1 <0>       0.6000
   15 O15      -5.4074    -3.1742     4.5773 O.2    1 <0>      -0.5200
   16 C16      -6.6262    -1.5213     3.4823 C.2    1 <0>      -0.0900
   17 C17      -7.3820    -1.0781     4.5296 C.2    1 <0>      -0.0700
   18 C18      -7.3059    -1.5523     5.9580 C.3    1 <0>      -0.1000
   19 C19      -8.2435    -0.0950     4.0180 C.2    1 <0>      -0.2200
   20 C20      -7.9791     0.0172     2.6975 C.2    1 <0>       0.0200
   21 C21      -8.6675     0.9570     1.7415 C.3    1 <0>      -0.0800
   22 O22      -7.0006    -0.8402     2.3796 O.3    1 <0>      -0.1600
   23 C23      -5.1094    -2.1552     1.1804 C.3    1 <0>       0.0900
   24 C24      -3.8419    -1.4363     0.7037 C.3    1 <0>      -0.1000
   25 H25       0.9989     1.9737     0.0839 H      1 <0>       0.0700
   26 H26      -0.5431     1.9502    -0.8049 H      1 <0>       0.0600
   27 H27      -0.5413     1.9310     0.9750 H      1 <0>       0.0600
   28 H28       0.5327    -0.2838    -0.8301 H      1 <0>       0.0500
   29 H29       0.5345    -0.3030     0.9498 H      1 <0>       0.0500
   30 H30      -2.5761    -1.7483    -1.8302 H      1 <0>       0.1000
   31 H31      -1.1784    -2.9070    -1.8985 H      1 <0>       0.0800
   32 H32      -2.0215    -5.2913    -0.8818 H      1 <0>       0.3800
   33 H33      -1.6135    -3.7682     2.0116 H      1 <0>       0.0900
   34 H34      -2.1620    -2.2647     2.7938 H      1 <0>       0.0700
   35 H35      -3.8989    -4.6154     1.9092 H      1 <0>       0.0700
   36 H36      -3.5810    -4.0846     3.5809 H      1 <0>       0.1000
   37 H37      -6.5843    -0.9451     6.5045 H      1 <0>       0.0700
   38 H38      -8.2866    -1.4590     6.4245 H      1 <0>       0.0700
   39 H39      -6.9919    -2.5959     5.9781 H      1 <0>       0.0900
   40 H40      -8.9794     0.4659     4.5748 H      1 <0>       0.1600
   41 H41      -8.1297     1.9047     1.7132 H      1 <0>       0.0900
   42 H42      -8.6799     0.5164     0.7446 H      1 <0>       0.0800
   43 H43      -9.6906     1.1297     2.0752 H      1 <0>       0.0900
   44 H44      -5.4041    -2.9032     0.4443 H      1 <0>       0.0700
   45 H45      -5.9135    -1.4308     1.3103 H      1 <0>       0.1200
   46 H46      -3.6200    -0.6060     1.3740 H      1 <0>       0.0800
   47 H47      -3.9954    -1.0589    -0.3073 H      1 <0>       0.0800
@<TRIPOS>BOND
   1    1    2 1
   2    1   25 1
   3    1   26 1
   4    1   27 1
   5    2    3 1
   6    2   28 1
   7    2   29 1
   8    3    4 1
   9    4    5 1
  10    4   10 1
  11    4    6 1
  12    6    7 1
  13    6   30 1
  14    6   31 1
  15    7    8 1
  16    7    9 1
  17    7   10 1
  18    9   32 1
  19   10   24 1
  20   10   11 1
  21   11   12 1
  22   11   33 1
  23   11   34 1
  24   12   13 1
  25   12   35 1
  26   12   36 1
  27   13   14 am
  28   13   23 1
  29   14   15 2
  30   14   16 1
  31   16   22 1
  32   16   17 2
  33   17   18 1
  34   17   19 1
  35   18   37 1
  36   18   38 1
  37   18   39 1
  38   19   20 2
  39   19   40 1
  40   20   21 1
  41   20   22 1
  42   21   41 1
  43   21   42 1
  44   21   43 1
  45   23   24 1
  46   23   44 1
  47   23   45 1
  48   24   46 1
  49   24   47 1
@<TRIPOS>MOLECULE
ZINC000006139962
  33   35    0    0    0
SMALL
USER_CHARGES
NO_NAME
@<TRIPOS>ATOM
    1 N1        0.0175    -1.1399    -0.0042 N.1    1 <0>      -0.3200
    2 C2        0.0021    -0.0041     0.0020 C.1    1 <0>       0.2200
    3 C3       -0.0173     1.4278     0.0099 C.2    1 <0>       0.4300
    4 N4        1.1578     2.1277     0.0024 N.pl3  1 <0>      -0.6600
    5 C5        2.4363     1.4126    -0.0136 C.3    1 <0>       0.1400
    6 C6        3.5683     2.4074    -0.0191 C.ar   1 <0>      -0.1800
    7 C7        4.0803     2.8815    -1.2169 C.ar   1 <0>      -0.0500
    8 C8        5.1216     3.7963    -1.1736 C.ar   1 <0>      -0.1700
    9 C9        5.6108     4.2019     0.0534 C.ar   1 <0>       0.1200
   10 N10       5.0991     3.7296     1.1734 N.ar   1 <0>      -0.4800
   11 C11       4.1054     2.8630     1.1703 C.ar   1 <0>       0.1300
   12 C12      -1.2275     2.1047     0.0193 C.2    1 <0>      -0.3900
   13 C13      -1.4157     3.5653     0.0217 C.2    1 <0>       0.4600
   14 O14      -0.5340     4.4021     0.0155 O.2    1 <0>      -0.4500
   15 C15      -2.8750     3.8316     0.0321 C.ar   1 <0>      -0.1300
   16 C16      -3.5940     5.0217     0.0380 C.ar   1 <0>      -0.0600
   17 C17      -4.9789     4.9947     0.0482 C.ar   1 <0>      -0.1000
   18 C18      -5.6534     3.7890     0.0526 C.ar   1 <0>      -0.1000
   19 C19      -4.9516     2.5947     0.0468 C.ar   1 <0>      -0.0600
   20 C20      -3.5612     2.6048     0.0361 C.ar   1 <0>      -0.1300
   21 C21      -2.5706     1.5007     0.0224 C.2    1 <0>       0.4600
   22 O22      -2.8222     0.3114     0.0174 O.2    1 <0>      -0.4400
   23 H23       1.1446     3.0976     0.0078 H      1 <0>       0.4300
   24 H24       2.5110     0.7820     0.8723 H      1 <0>       0.0900
   25 H25       2.4940     0.7916    -0.9075 H      1 <0>       0.0900
   26 H26       3.6780     2.5461    -2.1614 H      1 <0>       0.1400
   27 H27       5.5451     4.1864    -2.0873 H      1 <0>       0.1400
   28 H28       6.4219     4.9138     0.0957 H      1 <0>       0.1600
   29 H29       3.7123     2.4983     2.1078 H      1 <0>       0.1600
   30 H30      -3.0725     5.9675     0.0350 H      1 <0>       0.1400
   31 H31      -5.5343     5.9210     0.0531 H      1 <0>       0.1400
   32 H32      -6.7333     3.7775     0.0609 H      1 <0>       0.1400
   33 H33      -5.4846     1.6554     0.0509 H      1 <0>       0.1400
@<TRIPOS>BOND
   1    1    2 3
   2    2    3 1
   3    3    4 1
   4    3   12 2
   5    4    5 1
   6    4   23 1
   7    5    6 1
   8    5   24 1
   9    5   25 1
  10    6   11 ar
  11    6    7 ar
  12    7    8 ar
  13    7   26 1
  14    8    9 ar
  15    8   27 1
  16    9   10 ar
  17    9   28 1
  18   10   11 ar
  19   11   29 1
  20   12   21 1
  21   12   13 1
  22   13   14 2
  23   13   15 1
  24   15   20 ar
  25   15   16 ar
  26   16   17 ar
  27   16   30 1
  28   17   18 ar
  29   17   31 1
  30   18   19 ar
  31   18   32 1
  32   19   20 ar
  33   19   33 1
  34   20   21 1
  35   21   22 2
@<TRIPOS>MOLECULE
ZINC000057020575
  37   39    0    0    0
SMALL
USER_CHARGES
NO_NAME
@<TRIPOS>ATOM
    1 O1        0.4260     2.1872     0.7364 O.2    1 <0>      -0.9700
    2 S2        0.4733     1.4558    -0.4810 S.o2   1 <0>       2.7800
    3 O3        0.5709     0.0391    -0.5332 O.2    1 <0>      -0.9700
    4 N4       -0.8933     1.8617    -1.3237 N.am   1 <0>      -1.1200
    5 C5       -1.2246     3.2712    -1.5469 C.3    1 <0>       0.2000
    6 H6       -0.4575     3.9127    -1.1131 H      1 <0>       0.1000
    7 C7       -1.3685     3.5548    -3.0573 C.3    1 <0>      -0.1300
    8 C8       -2.4918     4.6128    -3.0900 C.3    1 <0>      -0.0800
    9 C9       -3.3071     4.3638    -1.8393 C.ar   1 <0>      -0.1300
   10 C10      -4.5866     4.7793    -1.5029 C.ar   1 <0>       0.1100
   11 F11      -5.2997     5.5329    -2.3682 F      1 <0>      -0.1400
   12 C12      -5.1350     4.4236    -0.2832 C.ar   1 <0>      -0.1400
   13 C13      -4.4054     3.6529     0.6016 C.ar   1 <0>      -0.0900
   14 C14      -3.1304     3.2389     0.2673 C.ar   1 <0>      -0.1000
   15 C15      -2.5779     3.5934    -0.9503 C.ar   1 <0>      -0.0900
   16 N16       1.7665     2.0453    -1.3308 N.am   1 <0>      -1.0100
   17 C17       2.3476     1.2859    -2.4493 C.3    1 <0>       0.0900
   18 C18       2.4597     2.2188    -3.6606 C.3    1 <0>       0.0500
   19 O19       3.1502     3.4097    -3.2751 O.3    1 <0>      -0.3700
   20 C20       2.4793     4.1768    -2.2725 C.3    1 <0>       0.0500
   21 C21       2.3647     3.3468    -0.9938 C.3    1 <0>       0.0800
   22 H22      -1.4743     1.1662    -1.6696 H      1 <0>       0.4200
   23 H23      -0.4426     3.9600    -3.4654 H      1 <0>       0.0900
   24 H24      -1.6684     2.6546    -3.5937 H      1 <0>       0.0900
   25 H25      -2.0668     5.6164    -3.0709 H      1 <0>       0.0900
   26 H26      -3.1106     4.4802    -3.9775 H      1 <0>       0.0800
   27 H27      -6.1316     4.7483    -0.0231 H      1 <0>       0.1400
   28 H28      -4.8315     3.3746     1.5542 H      1 <0>       0.1400
   29 H29      -2.5616     2.6366     0.9601 H      1 <0>       0.1300
   30 H30       3.3376     0.9237    -2.1721 H      1 <0>       0.0800
   31 H31       1.7027     0.4419    -2.6944 H      1 <0>       0.1000
   32 H32       3.0126     1.7184    -4.4556 H      1 <0>       0.1100
   33 H33       1.4617     2.4754    -4.0160 H      1 <0>       0.0600
   34 H34       3.0464     5.0851    -2.0688 H      1 <0>       0.1100
   35 H35       1.4815     4.4406    -2.6229 H      1 <0>       0.0600
   36 H36       1.7334     3.8672    -0.2736 H      1 <0>       0.1000
   37 H37       3.3557     3.1898    -0.5679 H      1 <0>       0.0900
@<TRIPOS>BOND
   1    1    2 2
   2    2    3 2
   3    2    4 am
   4    2   16 am
   5    4    5 1
   6    4   22 1
   7    5    6 1
   8    5   15 1
   9    5    7 1
  10    7    8 1
  11    7   23 1
  12    7   24 1
  13    8    9 1
  14    8   25 1
  15    8   26 1
  16    9   15 ar
  17    9   10 ar
  18   10   11 1
  19   10   12 ar
  20   12   13 ar
  21   12   27 1
  22   13   14 ar
  23   13   28 1
  24   14   15 ar
  25   14   29 1
  26   16   21 1
  27   16   17 1
  28   17   18 1
  29   17   30 1
  30   17   31 1
  31   18   19 1
  32   18   32 1
  33   18   33 1
  34   19   20 1
  35   20   21 1
  36   20   34 1
  37   20   35 1
  38   21   36 1
  39   21   37 1
@<TRIPOS>MOLECULE
ZINC000020604795
37    39    1     0     0
SMALL
USER_CHARGES
@<TRIPOS>ATOM
1      C1     -0.0157    1.3058    0.0092 C.2      1 ZINC000020604795   -0.1300
2      C2      0.0021   -0.0041    0.0020 C.2      1 ZINC000020604795   -0.1900
3      C3     -1.2926   -0.7753    0.0102 C.3      1 ZINC000020604795    0.1300
4      N4     -1.3176   -1.6997   -1.1260 N.am     1 ZINC000020604795   -0.4600
5      C5     -1.8199   -1.2914   -2.3033 C.2      1 ZINC000020604795    0.5300
6      S6     -2.4158    0.3087   -2.4276 S.2      1 ZINC000020604795   -0.5100
7      N7     -1.8748   -2.0821   -3.3865 N.am     1 ZINC000020604795   -0.6100
8      C8     -1.4197   -3.3537   -3.3469 C.2      1 ZINC000020604795    0.5500
9      O9     -1.4716   -4.0665   -4.3310 O.2      1 ZINC000020604795   -0.4600
10     C10    -0.8595   -3.8527   -2.0817 C.ar     1 ZINC000020604795   -0.2200
11     C11    -0.3684   -5.1537   -1.9557 C.ar     1 ZINC000020604795   -0.0300
12     C12    -0.3921   -6.1071   -3.1226 C.3      1 ZINC000020604795    0.5200
13     F13     0.1538   -7.3348   -2.7329 F        1 ZINC000020604795   -0.1700
14     F14    -1.7129   -6.2966   -3.5432 F        1 ZINC000020604795   -0.1600
15     F15     0.3606   -5.5750   -4.1749 F        1 ZINC000020604795   -0.1600
16     C16     0.1366   -5.5394   -0.7404 C.ar     1 ZINC000020604795   -0.1500
17     C17     0.1444   -4.6316    0.3205 C.ar     1 ZINC000020604795    0.3200
18     C18     0.6912   -5.0519    1.6314 C.2      1 ZINC000020604795   -0.2400
19     C19     0.6768   -4.3199    2.7856 C.2      1 ZINC000020604795    0.1300
20     N20     1.2694   -5.0577    3.7428 N.pl3    1 ZINC000020604795   -0.3600
21     C21     1.4678   -4.6547    5.1372 C.3      1 ZINC000020604795    0.0900
22     N22     1.6631   -6.2765    3.1776 N.2      1 ZINC000020604795   -0.2900
23     C23     1.3163   -6.2828    1.9185 C.2      1 ZINC000020604795    0.0900
24     N24    -0.3282   -3.3984    0.1776 N.ar     1 ZINC000020604795   -0.4900
25     C25    -0.8185   -2.9814   -0.9758 C.ar     1 ZINC000020604795    0.4100
26     H26     0.9122    1.8585    0.0033 H        1 ZINC000020604795    0.1000
27     H27    -0.9582    1.8330    0.0166 H        1 ZINC000020604795    0.1100
28     H28     0.9446   -0.5313   -0.0098 H        1 ZINC000020604795    0.1100
29     H29    -1.3737   -1.3393    0.9394 H        1 ZINC000020604795    0.1100
30     H30    -2.1295   -0.0812   -0.0676 H        1 ZINC000020604795    0.1300
31     H31    -2.2478   -1.7348   -4.2118 H        1 ZINC000020604795    0.4500
32     H32     0.5251   -6.5380   -0.6047 H        1 ZINC000020604795    0.1700
33     H33     0.2648   -3.3291    2.9075 H        1 ZINC000020604795    0.1900
34     H34     0.6075   -4.9638    5.7307 H        1 ZINC000020604795    0.0800
35     H35     2.3681   -5.1290    5.5279 H        1 ZINC000020604795    0.1000
36     H36     1.5756   -3.5713    5.1904 H        1 ZINC000020604795    0.1000
37     H37     1.4849   -7.0874    1.2180 H        1 ZINC000020604795    0.2000
@<TRIPOS>BOND
1     1     2     2
2     1     26    1
3     1     27    1
4     2     3     1
5     2     28    1
6     3     4     1
7     3     29    1
8     3     30    1
9     4     25    1
10    4     5     am
11    5     6     2
12    5     7     am
13    7     8     am
14    7     31    1
15    8     9     2
16    8     10    1
17    10    25    ar
18    10    11    ar
19    11    12    1
20    11    16    ar
21    12    13    1
22    12    14    1
23    12    15    1
24    16    17    ar
25    16    32    1
26    17    18    1
27    17    24    ar
28    18    23    1
29    18    19    2
30    19    20    1
31    19    33    1
32    20    21    1
33    20    22    1
34    21    34    1
35    21    35    1
36    21    36    1
37    22    23    2
38    23    37    1
39    24    25    ar
@<TRIPOS>SUBSTRUCTURE
1   ZINC000020604795 1     RESIDUE    1   A     ZIN   1
@<TRIPOS>MOLECULE
ZINC000031669554
32    34    1     0     0
SMALL
USER_CHARGES
@<TRIPOS>ATOM
1      O1     -0.0740   -0.1349   -0.0488 O.2      1 ZINC000031669554   -1.0100
2      S2     -0.0873    1.2849    0.0071 S.o2     1 ZINC000031669554    2.6200
3      O3      1.0950    2.0722    0.0483 O.2      1 ZINC000031669554   -1.0100
4      N4     -0.9443    1.7969   -1.3142 N.pl3    1 ZINC000031669554   -1.0900
5      C5     -0.4386    1.5856   -2.5999 C.ar     1 ZINC000031669554    0.3000
6      C6      0.7786    0.9420   -2.7718 C.ar     1 ZINC000031669554   -0.2500
7      C7      1.2771    0.7339   -4.0440 C.ar     1 ZINC000031669554   -0.0400
8      C8      0.5664    1.1654   -5.1487 C.ar     1 ZINC000031669554   -0.2000
9      C9     -0.6482    1.8076   -4.9872 C.ar     1 ZINC000031669554    0.0300
10     Cl10   -1.5368    2.3469   -6.3777 Cl       1 ZINC000031669554   -0.0700
11     C11    -1.1586    2.0159   -3.7140 C.ar     1 ZINC000031669554    0.0600
12     N12    -2.3905    2.6672   -3.5473 N.pl3    1 ZINC000031669554   -0.2900
13     C13    -3.4128    2.2729   -2.7643 C.2      1 ZINC000031669554    0.3000
14     N14    -4.3774    3.1491   -2.8854 N.2      1 ZINC000031669554   -0.5700
15     C15    -4.0110    4.1111   -3.7313 C.2      1 ZINC000031669554    0.1800
16     N16    -2.8003    3.8631   -4.1591 N.2      1 ZINC000031669554   -0.3200
17     C17    -1.0234    1.7178    1.4357 C.ar     1 ZINC000031669554   -0.6100
18     C18    -0.8342    2.9471    2.0385 C.ar     1 ZINC000031669554    0.0000
19     C19    -1.5675    3.2891    3.1596 C.ar     1 ZINC000031669554   -0.1500
20     C20    -2.4923    2.4005    3.6790 C.ar     1 ZINC000031669554    0.1100
21     F21    -3.2096    2.7341    4.7741 F        1 ZINC000031669554   -0.1300
22     C22    -2.6825    1.1672    3.0738 C.ar     1 ZINC000031669554    0.0400
23     F23    -3.5849    0.2979    3.5791 F        1 ZINC000031669554   -0.1300
24     C24    -1.9504    0.8298    1.9491 C.ar     1 ZINC000031669554   -0.0300
25     H25     1.3367    0.6038   -1.9112 H        1 ZINC000031669554    0.1100
26     H26     2.2248    0.2330   -4.1755 H        1 ZINC000031669554    0.1200
27     H27     0.9609    1.0009   -6.1405 H        1 ZINC000031669554    0.1300
28     H28    -3.4332    1.3882   -2.1451 H        1 ZINC000031669554    0.2100
29     H29    -4.6147    4.9607   -4.0145 H        1 ZINC000031669554    0.2100
30     H30    -0.1125    3.6411    1.6337 H        1 ZINC000031669554    0.1500
31     H31    -1.4183    4.2497    3.6302 H        1 ZINC000031669554    0.1500
32     H32    -2.0978   -0.1301    1.4767 H        1 ZINC000031669554    0.1600
@<TRIPOS>BOND
1     1     2     2
2     2     3     2
3     2     4     1
4     2     17    1
5     4     5     1
6     5     11    ar
7     5     6     ar
8     6     7     ar
9     6     25    1
10    7     8     ar
11    7     26    1
12    8     9     ar
13    8     27    1
14    9     10    1
15    9     11    ar
16    11    12    1
17    12    16    1
18    12    13    1
19    13    14    2
20    13    28    1
21    14    15    1
22    15    16    2
23    15    29    1
24    17    24    ar
25    17    18    ar
26    18    19    ar
27    18    30    1
28    19    20    ar
29    19    31    1
30    20    21    1
31    20    22    ar
32    22    23    1
33    22    24    ar
34    24    32    1
@<TRIPOS>SUBSTRUCTURE
1   ZINC000031669554 1     RESIDUE    1   A     ZIN   1

@<TRIPOS>MOLECULE
ZINC000031669554
33    35    1     0     0
SMALL
USER_CHARGES
@<TRIPOS>ATOM
1      O1      0.0612    0.0232    0.0241 O.2      1 ZINC000031669554   -0.9300
2      S2      0.0485    1.4440    0.0011 S.o2     1 ZINC000031669554    2.6900
3      O3      1.2280    2.2303   -0.0982 O.2      1 ZINC000031669554   -0.9300
4      N4     -0.9145    1.8825   -1.2727 N.am     1 ZINC000031669554   -1.0600
5      C5     -1.2215    3.2293   -1.4855 C.ar     1 ZINC000031669554    0.1700
6      C6     -0.2773    4.2094   -1.2147 C.ar     1 ZINC000031669554   -0.1600
7      C7     -0.5827    5.5407   -1.4257 C.ar     1 ZINC000031669554   -0.0600
8      C8     -1.8280    5.9010   -1.9066 C.ar     1 ZINC000031669554   -0.1100
9      C9     -2.7757    4.9308   -2.1798 C.ar     1 ZINC000031669554    0.0000
10     Cl10   -4.3375    5.3885   -2.7838 Cl       1 ZINC000031669554   -0.0300
11     C11    -2.4757    3.5916   -1.9759 C.ar     1 ZINC000031669554    0.1300
12     N12    -3.4351    2.6054   -2.2522 N.pl3    1 ZINC000031669554   -0.3400
13     C13    -3.8102    1.5950   -1.4446 C.2      1 ZINC000031669554    0.2600
14     N14    -4.7271    0.8981   -2.0665 N.2      1 ZINC000031669554   -0.5300
15     C15    -4.9628    1.4289   -3.2656 C.2      1 ZINC000031669554    0.2100
16     N16    -4.1998    2.4793   -3.4235 N.2      1 ZINC000031669554   -0.2900
17     C17    -0.7696    1.9581    1.4746 C.ar     1 ZINC000031669554   -0.6700
18     C18    -0.5355    3.2189    1.9901 C.ar     1 ZINC000031669554    0.0000
19     C19    -1.1762    3.6246    3.1462 C.ar     1 ZINC000031669554   -0.1400
20     C20    -2.0532    2.7682    3.7880 C.ar     1 ZINC000031669554    0.1300
21     F21    -2.6801    3.1641    4.9174 F        1 ZINC000031669554   -0.1100
22     C22    -2.2885    1.5032    3.2704 C.ar     1 ZINC000031669554    0.0500
23     F23    -3.1444    0.6653    3.8954 F        1 ZINC000031669554   -0.1200
24     C24    -1.6493    1.1020    2.1106 C.ar     1 ZINC000031669554   -0.0300
25     H25    -1.2655    1.2047   -1.8712 H        1 ZINC000031669554    0.4300
26     H26     0.6963    3.9318   -0.8387 H        1 ZINC000031669554    0.1800
27     H27     0.1535    6.3020   -1.2141 H        1 ZINC000031669554    0.1500
28     H28    -2.0617    6.9428   -2.0690 H        1 ZINC000031669554    0.1500
29     H29    -3.4220    1.3947   -0.4569 H        1 ZINC000031669554    0.2100
30     H30    -5.6724    1.0547   -3.9886 H        1 ZINC000031669554    0.2300
31     H31     0.1489    3.8878    1.4896 H        1 ZINC000031669554    0.1600
32     H32    -0.9919    4.6098    3.5484 H        1 ZINC000031669554    0.1600
33     H33    -1.8319    0.1173    1.7064 H        1 ZINC000031669554    0.1700
@<TRIPOS>BOND
1     1     2     2
2     2     3     2
3     2     4     am
4     2     17    1
5     4     5     1
6     4     25    1
7     5     11    ar
8     5     6     ar
9     6     7     ar
10    6     26    1
11    7     8     ar
12    7     27    1
13    8     9     ar
14    8     28    1
15    9     10    1
16    9     11    ar
17    11    12    1
18    12    16    1
19    12    13    1
20    13    14    2
21    13    29    1
22    14    15    1
23    15    16    2
24    15    30    1
25    17    24    ar
26    17    18    ar
27    18    19    ar
28    18    31    1
29    19    20    ar
30    19    32    1
31    20    21    1
32    20    22    ar
33    22    23    1
34    22    24    ar
35    24    33    1
@<TRIPOS>SUBSTRUCTURE
1   ZINC000031669554 1     RESIDUE    1   A     ZIN   1
@<TRIPOS>MOLECULE
ZINC000032086684
40    42    1     0     0
SMALL
USER_CHARGES
@<TRIPOS>ATOM
1      C1     -2.0054    0.5256    0.3510 C.3      1 ZINC000032086684   -0.0900
2      C2     -0.8561   -0.4283    0.1498 C.2      1 ZINC000032086684    0.0700
3      C3     -0.5812   -1.1199   -0.9808 C.2      1 ZINC000032086684   -0.2800
4      C4      0.5656   -1.8865   -0.7486 C.2      1 ZINC000032086684    0.0300
5      C5      1.2268   -2.8093   -1.7396 C.3      1 ZINC000032086684   -0.0600
6      N6      0.9659   -1.6638    0.4778 N.2      1 ZINC000032086684   -0.2400
7      N7      0.0886   -0.7425    1.0643 N.pl3    1 ZINC000032086684   -0.2700
8      C8      0.1707   -0.2415    2.3722 C.ar     1 ZINC000032086684    0.0600
9      C9      0.0558    1.1206    2.6035 C.ar     1 ZINC000032086684   -0.0700
10     C10     0.1374    1.6122    3.8930 C.ar     1 ZINC000032086684   -0.2100
11     C11     0.3331    0.7492    4.9554 C.ar     1 ZINC000032086684   -0.0600
12     C12     0.4488   -0.6103    4.7345 C.ar     1 ZINC000032086684   -0.2600
13     C13     0.3624   -1.1130    3.4443 C.ar     1 ZINC000032086684    0.3000
14     N14     0.4791   -2.4875    3.2182 N.pl3    1 ZINC000032086684   -1.0600
15     S15     0.7209   -3.5184    4.4914 S.o2     1 ZINC000032086684    2.6000
16     O16     2.0091   -3.2191    5.0111 O.2      1 ZINC000032086684   -1.0200
17     O17    -0.4634   -3.4725    5.2755 O.2      1 ZINC000032086684   -1.0300
18     C18     0.8173   -5.1492    3.8310 C.ar     1 ZINC000032086684   -0.6100
19     C19    -0.3317   -5.9073    3.6939 C.ar     1 ZINC000032086684    0.0100
20     C20    -0.2650   -7.1889    3.1761 C.ar     1 ZINC000032086684   -0.1500
21     C21     0.9493   -7.7189    2.7927 C.ar     1 ZINC000032086684   -0.0300
22     C22     2.1131   -6.9590    2.9279 C.ar     1 ZINC000032086684   -0.0600
23     C23     3.3772   -7.5027    2.5318 C.1      1 ZINC000032086684    0.2600
24     N24     4.3801   -7.9341    2.2176 N.1      1 ZINC000032086684   -0.4200
25     C25     2.0379   -5.6649    3.4466 C.ar     1 ZINC000032086684    0.0300
26     H26    -1.6719    1.5437    0.1500 H        1 ZINC000032086684    0.0700
27     H27    -2.8155    0.2673   -0.3310 H        1 ZINC000032086684    0.0800
28     H28    -2.3599    0.4557    1.3793 H        1 ZINC000032086684    0.0700
29     H29    -1.1475   -1.0860   -1.8998 H        1 ZINC000032086684    0.1300
30     H30     1.9722   -2.2556   -2.3104 H        1 ZINC000032086684    0.0700
31     H31     1.7112   -3.6277   -1.2069 H        1 ZINC000032086684    0.0700
32     H32     0.4751   -3.2122   -2.4184 H        1 ZINC000032086684    0.0700
33     H33    -0.0972    1.7977    1.7761 H        1 ZINC000032086684    0.1100
34     H34     0.0483    2.6737    4.0710 H        1 ZINC000032086684    0.1100
35     H35     0.3962    1.1386    5.9608 H        1 ZINC000032086684    0.1100
36     H36     0.6020   -1.2816    5.5665 H        1 ZINC000032086684    0.1100
37     H37    -1.2851   -5.4971    3.9926 H        1 ZINC000032086684    0.1400
38     H38    -1.1658   -7.7756    3.0724 H        1 ZINC000032086684    0.1400
39     H39     0.9999   -8.7194    2.3891 H        1 ZINC000032086684    0.1400
40     H40     2.9341   -5.0719    3.5538 H        1 ZINC000032086684    0.1500
@<TRIPOS>BOND
1     1     2     1
2     1     26    1
3     1     27    1
4     1     28    1
5     2     7     1
6     2     3     2
7     3     4     1
8     3     29    1
9     4     5     1
10    4     6     2
11    5     30    1
12    5     31    1
13    5     32    1
14    6     7     1
15    7     8     1
16    8     13    ar
17    8     9     ar
18    9     10    ar
19    9     33    1
20    10    11    ar
21    10    34    1
22    11    12    ar
23    11    35    1
24    12    13    ar
25    12    36    1
26    13    14    1
27    14    15    1
28    15    16    2
29    15    17    2
30    15    18    1
31    18    25    ar
32    18    19    ar
33    19    20    ar
34    19    37    1
35    20    21    ar
36    20    38    1
37    21    22    ar
38    21    39    1
39    22    23    1
40    22    25    ar
41    23    24    3
42    25    40    1
@<TRIPOS>SUBSTRUCTURE
1   ZINC000032086684 1     RESIDUE    1   A     ZIN   1

@<TRIPOS>MOLECULE
ZINC000032086684
41    43    1     0     0
SMALL
USER_CHARGES
@<TRIPOS>ATOM
1      C1      1.9271    1.3619   -0.1045 C.3      1 ZINC000032086684   -0.0800
2      C2      1.1185    0.0902   -0.1138 C.2      1 ZINC000032086684    0.0900
3      N3      1.1816   -0.8525   -1.0199 N.2      1 ZINC000032086684   -0.3000
4      N4      0.2757   -1.8609   -0.6664 N.pl3    1 ZINC000032086684   -0.3300
5      C5      0.0410   -3.0467   -1.3786 C.ar     1 ZINC000032086684    0.1300
6      C6      0.0216   -4.2639   -0.7151 C.ar     1 ZINC000032086684   -0.1000
7      C7     -0.2098   -5.4312   -1.4187 C.ar     1 ZINC000032086684   -0.1200
8      C8     -0.4220   -5.3898   -2.7843 C.ar     1 ZINC000032086684   -0.0800
9      C9     -0.4041   -4.1809   -3.4543 C.ar     1 ZINC000032086684   -0.1600
10     C10    -0.1792   -3.0039   -2.7553 C.ar     1 ZINC000032086684    0.1700
11     N11    -0.1610   -1.7801   -3.4304 N.am     1 ZINC000032086684   -1.0500
12     S12    -1.1804   -1.5254   -4.7104 S.o2     1 ZINC000032086684    2.6900
13     O13    -1.0248   -0.1627   -5.0822 O.2      1 ZINC000032086684   -0.9400
14     O14    -0.9721   -2.6051   -5.6103 O.2      1 ZINC000032086684   -0.9400
15     C15    -2.8273   -1.6915   -4.1066 C.ar     1 ZINC000032086684   -0.6800
16     C16    -3.4450   -2.9293   -4.1182 C.ar     1 ZINC000032086684    0.0100
17     C17    -4.7383   -3.0688   -3.6460 C.ar     1 ZINC000032086684   -0.1300
18     C18    -5.4202   -1.9730   -3.1596 C.ar     1 ZINC000032086684   -0.0100
19     C19    -4.8026   -0.7206   -3.1445 C.ar     1 ZINC000032086684   -0.0400
20     C20    -5.5045    0.4215   -2.6410 C.1      1 ZINC000032086684    0.2400
21     N21    -6.0614    1.3275   -2.2416 N.1      1 ZINC000032086684   -0.4000
22     C22    -3.4959   -0.5879   -3.6181 C.ar     1 ZINC000032086684    0.0300
23     C23    -0.3319   -1.4894    0.4826 C.2      1 ZINC000032086684    0.0900
24     C24    -1.3814   -2.2739    1.2270 C.3      1 ZINC000032086684   -0.1000
25     C25     0.1757   -0.2888    0.8476 C.2      1 ZINC000032086684   -0.2600
26     H26     2.8597    1.1955    0.4346 H        1 ZINC000032086684    0.0800
27     H27     2.1482    1.6594   -1.1296 H        1 ZINC000032086684    0.0800
28     H28     1.3584    2.1506    0.3881 H        1 ZINC000032086684    0.0800
29     H29     0.1877   -4.3002    0.3514 H        1 ZINC000032086684    0.1400
30     H30    -0.2245   -6.3784   -0.9001 H        1 ZINC000032086684    0.1400
31     H31    -0.6020   -6.3047   -3.3292 H        1 ZINC000032086684    0.1400
32     H32    -0.5695   -4.1523   -4.5212 H        1 ZINC000032086684    0.1700
33     H33     0.4487   -1.0801   -3.1492 H        1 ZINC000032086684    0.4400
34     H34    -2.9156   -3.7907   -4.4979 H        1 ZINC000032086684    0.1500
35     H35    -5.2148   -4.0379   -3.6586 H        1 ZINC000032086684    0.1500
36     H36    -6.4296   -2.0832   -2.7917 H        1 ZINC000032086684    0.1500
37     H37    -3.0124    0.3777   -3.6093 H        1 ZINC000032086684    0.1500
38     H38    -0.8972   -2.9979    1.8824 H        1 ZINC000032086684    0.0800
39     H39    -1.9890   -1.5933    1.8234 H        1 ZINC000032086684    0.0900
40     H40    -2.0173   -2.7981    0.5135 H        1 ZINC000032086684    0.0700
41     H41    -0.1024    0.2789    1.7232 H        1 ZINC000032086684    0.1500
@<TRIPOS>BOND
1     1     2     1
2     1     26    1
3     1     27    1
4     1     28    1
5     2     25    1
6     2     3     2
7     3     4     1
8     4     5     1
9     4     23    1
10    5     10    ar
11    5     6     ar
12    6     7     ar
13    6     29    1
14    7     8     ar
15    7     30    1
16    8     9     ar
17    8     31    1
18    9     10    ar
19    9     32    1
20    10    11    1
21    11    12    am
22    11    33    1
23    12    13    2
24    12    14    2
25    12    15    1
26    15    22    ar
27    15    16    ar
28    16    17    ar
29    16    34    1
30    17    18    ar
31    17    35    1
32    18    19    ar
33    18    36    1
34    19    20    1
35    19    22    ar
36    20    21    3
37    22    37    1
38    23    24    1
39    23    25    2
40    24    38    1
41    24    39    1
42    24    40    1
43    25    41    1
@<TRIPOS>SUBSTRUCTURE
1   ZINC000032086684 1     RESIDUE    1   A     ZIN   1
@<TRIPOS>MOLECULE
ZINC000006923499
36    39    1     0     0
SMALL
USER_CHARGES
@<TRIPOS>ATOM
1      O1      0.0021   -0.0041    0.0020 O.2      1 ZINC000006923499   -0.5100
2      C2     -0.0144    1.2139    0.0087 C.2      1 ZINC000006923499    0.5300
3      C3     -1.2879    1.9446    0.0310 C.ar     1 ZINC000006923499   -0.1200
4      C4     -2.5161    1.2859    0.0452 C.ar     1 ZINC000006923499   -0.0600
5      C5     -3.6810    2.0214    0.0664 C.ar     1 ZINC000006923499   -0.1200
6      C6     -3.6431    3.4096    0.0731 C.ar     1 ZINC000006923499   -0.0900
7      C7     -2.4411    4.0816    0.0589 C.ar     1 ZINC000006923499   -0.1000
8      C8     -1.2477    3.3578    0.0383 C.ar     1 ZINC000006923499   -0.0600
9      C9      0.0565    4.0207    0.0231 C.2      1 ZINC000006923499    0.1000
10     N10     1.1458    3.3120    0.0041 N.2      1 ZINC000006923499   -0.2200
11     N11     1.1372    1.9169    0.0015 N.am     1 ZINC000006923499   -0.4100
12     C12     2.4124    1.1961   -0.0206 C.3      1 ZINC000006923499    0.2300
13     C13     2.8266    0.9517   -1.4488 C.2      1 ZINC000006923499    0.1600
14     N14     2.1671    1.3233   -2.4986 N.2      1 ZINC000006923499   -0.3000
15     N15     2.8807    0.9092   -3.6317 N.pl3    1 ZINC000006923499   -0.3800
16     C16     3.9910    0.2766   -3.1983 C.2      1 ZINC000006923499    0.4000
17     S17     5.2066   -0.4237   -4.1795 S.2      1 ZINC000006923499   -0.7600
18     N18     3.9700    0.3027   -1.8506 N.am     1 ZINC000006923499   -0.4700
19     C19     4.9429   -0.2469   -1.0034 C.ar     1 ZINC000006923499    0.1100
20     C20     6.0203    0.5236   -0.5899 C.ar     1 ZINC000006923499   -0.0700
21     C21     6.9774   -0.0203    0.2453 C.ar     1 ZINC000006923499   -0.1300
22     C22     6.8634   -1.3310    0.6697 C.ar     1 ZINC000006923499   -0.0900
23     C23     5.7917   -2.1032    0.2600 C.ar     1 ZINC000006923499   -0.1500
24     C24     4.8273   -1.5636   -0.5711 C.ar     1 ZINC000006923499    0.1200
25     F25     3.7803   -2.3177   -0.9715 F        1 ZINC000006923499   -0.1300
26     H26    -2.5544    0.2066    0.0394 H        1 ZINC000006923499    0.1400
27     H27    -4.6337    1.5128    0.0774 H        1 ZINC000006923499    0.1300
28     H28    -4.5670    3.9686    0.0894 H        1 ZINC000006923499    0.1300
29     H29    -2.4220    5.1614    0.0636 H        1 ZINC000006923499    0.1400
30     H30     0.1141    5.0992    0.0273 H        1 ZINC000006923499    0.2000
31     H31     3.1749    1.7912    0.4821 H        1 ZINC000006923499    0.1100
32     H32     2.2991    0.2416    0.4933 H        1 ZINC000006923499    0.1100
33     H33     6.1109    1.5477   -0.9209 H        1 ZINC000006923499    0.1300
34     H34     7.8160    0.5795    0.5667 H        1 ZINC000006923499    0.1300
35     H35     7.6132   -1.7530    1.3225 H        1 ZINC000006923499    0.1300
36     H36     5.7059   -3.1271    0.5927 H        1 ZINC000006923499    0.1400
@<TRIPOS>BOND
1     1     2     2
2     2     11    am
3     2     3     1
4     3     8     ar
5     3     4     ar
6     4     5     ar
7     4     26    1
8     5     6     ar
9     5     27    1
10    6     7     ar
11    6     28    1
12    7     8     ar
13    7     29    1
14    8     9     1
15    9     10    2
16    9     30    1
17    10    11    1
18    11    12    1
19    12    13    1
20    12    31    1
21    12    32    1
22    13    18    1
23    13    14    2
24    14    15    1
25    15    16    1
26    16    17    2
27    16    18    am
28    18    19    1
29    19    24    ar
30    19    20    ar
31    20    21    ar
32    20    33    1
33    21    22    ar
34    21    34    1
35    22    23    ar
36    22    35    1
37    23    24    ar
38    23    36    1
39    24    25    1
@<TRIPOS>SUBSTRUCTURE
1   ZINC000006923499 1     RESIDUE    1   A     ZIN   1

@<TRIPOS>MOLECULE
ZINC000006923499
37    40    1     0     0
SMALL
USER_CHARGES
@<TRIPOS>ATOM
1      O1      0.0021   -0.0041    0.0020 O.2      1 ZINC000006923499   -0.5100
2      C2     -0.0144    1.2139    0.0087 C.2      1 ZINC000006923499    0.5400
3      C3     -1.2879    1.9446    0.0310 C.ar     1 ZINC000006923499   -0.1200
4      C4     -2.5161    1.2859    0.0452 C.ar     1 ZINC000006923499   -0.0500
5      C5     -3.6810    2.0214    0.0664 C.ar     1 ZINC000006923499   -0.1100
6      C6     -3.6431    3.4096    0.0731 C.ar     1 ZINC000006923499   -0.0900
7      C7     -2.4411    4.0816    0.0589 C.ar     1 ZINC000006923499   -0.0900
8      C8     -1.2477    3.3578    0.0383 C.ar     1 ZINC000006923499   -0.0700
9      C9      0.0565    4.0207    0.0231 C.2      1 ZINC000006923499    0.1300
10     N10     1.1458    3.3120    0.0041 N.2      1 ZINC000006923499   -0.2400
11     N11     1.1372    1.9169    0.0015 N.am     1 ZINC000006923499   -0.4300
12     C12     2.4124    1.1961   -0.0206 C.3      1 ZINC000006923499    0.2200
13     C13     2.8266    0.9517   -1.4488 C.2      1 ZINC000006923499    0.2700
14     N14     2.1671    1.3233   -2.4986 N.2      1 ZINC000006923499   -0.2500
15     N15     2.8807    0.9092   -3.6317 N.am     1 ZINC000006923499   -0.4700
16     C16     3.9910    0.2766   -3.1983 C.2      1 ZINC000006923499    0.4800
17     S17     5.2066   -0.4237   -4.1795 S.2      1 ZINC000006923499   -0.5400
18     N18     3.9700    0.3027   -1.8506 N.am     1 ZINC000006923499   -0.4400
19     C19     4.9429   -0.2469   -1.0034 C.ar     1 ZINC000006923499    0.0700
20     C20     6.0203    0.5236   -0.5899 C.ar     1 ZINC000006923499   -0.0600
21     C21     6.9774   -0.0203    0.2453 C.ar     1 ZINC000006923499   -0.1200
22     C22     6.8634   -1.3310    0.6697 C.ar     1 ZINC000006923499   -0.0600
23     C23     5.7917   -2.1032    0.2600 C.ar     1 ZINC000006923499   -0.1400
24     C24     4.8273   -1.5636   -0.5711 C.ar     1 ZINC000006923499    0.1300
25     F25     3.7803   -2.3177   -0.9715 F        1 ZINC000006923499   -0.1200
26     H26    -2.5544    0.2066    0.0394 H        1 ZINC000006923499    0.1400
27     H27    -4.6337    1.5128    0.0774 H        1 ZINC000006923499    0.1400
28     H28    -4.5670    3.9686    0.0894 H        1 ZINC000006923499    0.1400
29     H29    -2.4220    5.1614    0.0636 H        1 ZINC000006923499    0.1400
30     H30     0.1141    5.0992    0.0273 H        1 ZINC000006923499    0.2000
31     H31     3.1749    1.7912    0.4821 H        1 ZINC000006923499    0.1400
32     H32     2.2991    0.2416    0.4933 H        1 ZINC000006923499    0.1400
33     H33     2.6237    1.0507   -4.5563 H        1 ZINC000006923499    0.4700
34     H34     6.1109    1.5477   -0.9209 H        1 ZINC000006923499    0.1400
35     H35     7.8160    0.5795    0.5667 H        1 ZINC000006923499    0.1500
36     H36     7.6132   -1.7530    1.3225 H        1 ZINC000006923499    0.1500
37     H37     5.7059   -3.1271    0.5927 H        1 ZINC000006923499    0.1500
@<TRIPOS>BOND
1     1     2     2
2     2     11    am
3     2     3     1
4     3     8     ar
5     3     4     ar
6     4     5     ar
7     4     26    1
8     5     6     ar
9     5     27    1
10    6     7     ar
11    6     28    1
12    7     8     ar
13    7     29    1
14    8     9     1
15    9     10    2
16    9     30    1
17    10    11    1
18    11    12    1
19    12    13    1
20    12    31    1
21    12    32    1
22    13    18    1
23    13    14    2
24    14    15    1
25    15    16    am
26    15    33    1
27    16    17    2
28    16    18    am
29    18    19    1
30    19    24    ar
31    19    20    ar
32    20    21    ar
33    20    34    1
34    21    22    ar
35    21    35    1
36    22    23    ar
37    22    36    1
38    23    24    ar
39    23    37    1
40    24    25    1
@<TRIPOS>SUBSTRUCTURE
1   ZINC000006923499 1     RESIDUE    1   A     ZIN   1
@<TRIPOS>MOLECULE
ZINC000040945532
38    41    1     0     0
SMALL
USER_CHARGES
@<TRIPOS>ATOM
1      O1      0.0021   -0.0041    0.0020 O.2      1 ZINC000040945532   -1.0000
2      S2     -0.0172    1.4168    0.0098 S.o2     1 ZINC000040945532    2.6400
3      O3      1.1617    2.2101    0.0028 O.2      1 ZINC000040945532   -1.0000
4      N4     -0.9002    1.8797   -1.3124 N.pl3    1 ZINC000040945532   -1.0300
5      C5     -0.4203    1.6289   -2.5893 C.2      1 ZINC000040945532    0.3900
6      N6      0.7004    1.0356   -2.8864 N.2      1 ZINC000040945532   -0.4200
7      N7      0.9793    0.8906   -4.1076 N.2      1 ZINC000040945532   -0.1900
8      C8      0.1365    1.3394   -4.9797 C.2      1 ZINC000040945532   -0.0800
9      C9      0.2848    1.2638   -6.4775 C.3      1 ZINC000040945532    0.1900
10     H10    -0.6720    1.4585   -6.9620 H        1 ZINC000040945532    0.0800
11     C11     1.3504    2.2779   -6.9642 C.3      1 ZINC000040945532   -0.1400
12     C12     1.7973    1.6186   -8.2975 C.3      1 ZINC000040945532   -0.1500
13     C13     1.6858    0.1136   -7.9723 C.3      1 ZINC000040945532    0.0500
14     O14     0.7864   -0.0254   -6.8644 O.3      1 ZINC000040945532   -0.3600
15     S15    -1.2218    2.0492   -4.1046 S.3      1 ZINC000040945532   -0.0200
16     C16    -0.9297    1.8941    1.4396 C.ar     1 ZINC000040945532   -0.6200
17     C17    -0.7265    3.1564    1.9935 C.ar     1 ZINC000040945532   -0.0300
18     C18    -1.4150    3.5564    3.0976 C.ar     1 ZINC000040945532   -0.1300
19     C19    -2.3451    2.6858    3.6900 C.ar     1 ZINC000040945532   -0.0200
20     C20    -3.0751    3.0635    4.8301 C.ar     1 ZINC000040945532   -0.1200
21     C21    -3.9680    2.1938    5.3765 C.ar     1 ZINC000040945532   -0.1100
22     C22    -4.1711    0.9310    4.8225 C.ar     1 ZINC000040945532   -0.1300
23     C23    -3.4824    0.5309    3.7190 C.ar     1 ZINC000040945532   -0.0900
24     C24    -2.5517    1.4017    3.1266 C.ar     1 ZINC000040945532   -0.0800
25     C25    -1.8265    1.0263    1.9832 C.ar     1 ZINC000040945532    0.0100
26     H26     0.9081    3.2586   -7.1398 H        1 ZINC000040945532    0.0800
27     H27     2.1804    2.3435   -6.2608 H        1 ZINC000040945532    0.0900
28     H28     1.1236    1.8909   -9.1099 H        1 ZINC000040945532    0.0800
29     H29     2.8257    1.8884   -8.5380 H        1 ZINC000040945532    0.0800
30     H30     1.2924   -0.4231   -8.8356 H        1 ZINC000040945532    0.0700
31     H31     2.6664   -0.2808   -7.7056 H        1 ZINC000040945532    0.0700
32     H32    -0.0119    3.8274    1.5402 H        1 ZINC000040945532    0.1400
33     H33    -1.2469    4.5377    3.5162 H        1 ZINC000040945532    0.1300
34     H34    -2.9280    4.0386    5.2705 H        1 ZINC000040945532    0.1300
35     H35    -4.5274    2.4863    6.2528 H        1 ZINC000040945532    0.1200
36     H36    -4.8854    0.2599    5.2760 H        1 ZINC000040945532    0.1200
37     H37    -3.6500   -0.4506    3.3009 H        1 ZINC000040945532    0.1300
38     H38    -1.9770    0.0529    1.5403 H        1 ZINC000040945532    0.1400
@<TRIPOS>BOND
1     1     2     2
2     2     3     2
3     2     4     1
4     2     16    1
5     4     5     1
6     5     15    1
7     5     6     2
8     6     7     1
9     7     8     2
10    8     9     1
11    8     15    1
12    9     10    1
13    9     14    1
14    9     11    1
15    11    12    1
16    11    26    1
17    11    27    1
18    12    13    1
19    12    28    1
20    12    29    1
21    13    14    1
22    13    30    1
23    13    31    1
24    16    25    ar
25    16    17    ar
26    17    18    ar
27    17    32    1
28    18    19    ar
29    18    33    1
30    19    24    ar
31    19    20    ar
32    20    21    ar
33    20    34    1
34    21    22    ar
35    21    35    1
36    22    23    ar
37    22    36    1
38    23    24    ar
39    23    37    1
40    24    25    ar
41    25    38    1
@<TRIPOS>SUBSTRUCTURE
1   ZINC000040945532 1     RESIDUE    1   A     ZIN   1

@<TRIPOS>MOLECULE
ZINC000040945532
39    42    1     0     0
SMALL
USER_CHARGES
@<TRIPOS>ATOM
1      O1      0.0021   -0.0041    0.0020 O.2      1 ZINC000040945532   -0.9300
2      S2     -0.0172    1.4168    0.0098 S.o2     1 ZINC000040945532    2.6800
3      O3      1.1617    2.2101    0.0028 O.2      1 ZINC000040945532   -0.9100
4      N4     -0.9002    1.8797   -1.3124 N.am     1 ZINC000040945532   -1.0000
5      C5     -1.1240    3.2259   -1.5601 C.2      1 ZINC000040945532    0.2700
6      N6     -0.6939    4.2220   -0.8396 N.2      1 ZINC000040945532   -0.3000
7      N7     -0.9935    5.3878   -1.2154 N.2      1 ZINC000040945532   -0.2000
8      C8     -1.7054    5.5152   -2.2875 C.2      1 ZINC000040945532    0.0200
9      C9     -2.1651    6.8140   -2.8980 C.3      1 ZINC000040945532    0.1700
10     H10    -2.5006    6.6520   -3.9224 H        1 ZINC000040945532    0.1000
11     C11    -3.3047    7.4332   -2.0503 C.3      1 ZINC000040945532   -0.1400
12     C12    -3.1657    8.9348   -2.4213 C.3      1 ZINC000040945532   -0.1500
13     C13    -1.6408    9.0861   -2.6090 C.3      1 ZINC000040945532    0.0500
14     O14    -1.1042    7.7820   -2.8681 O.3      1 ZINC000040945532   -0.3600
15     S15    -2.0367    3.8985   -2.9129 S.3      1 ZINC000040945532    0.1100
16     C16    -0.9297    1.8941    1.4396 C.ar     1 ZINC000040945532   -0.6700
17     C17    -0.7265    3.1564    1.9935 C.ar     1 ZINC000040945532   -0.0300
18     C18    -1.4150    3.5564    3.0976 C.ar     1 ZINC000040945532   -0.1200
19     C19    -2.3451    2.6858    3.6900 C.ar     1 ZINC000040945532   -0.0100
20     C20    -3.0751    3.0635    4.8301 C.ar     1 ZINC000040945532   -0.1200
21     C21    -3.9680    2.1938    5.3765 C.ar     1 ZINC000040945532   -0.0900
22     C22    -4.1711    0.9310    4.8225 C.ar     1 ZINC000040945532   -0.1200
23     C23    -3.4824    0.5309    3.7190 C.ar     1 ZINC000040945532   -0.0900
24     C24    -2.5517    1.4017    3.1266 C.ar     1 ZINC000040945532   -0.0800
25     C25    -1.8265    1.0263    1.9832 C.ar     1 ZINC000040945532    0.0200
26     H26    -1.2609    1.2094   -1.9136 H        1 ZINC000040945532    0.4400
27     H27    -4.2762    7.0421   -2.3527 H        1 ZINC000040945532    0.0900
28     H28    -3.1334    7.2740   -0.9857 H        1 ZINC000040945532    0.0900
29     H29    -3.6945    9.1560   -3.3484 H        1 ZINC000040945532    0.0800
30     H30    -3.5214    9.5695   -1.6097 H        1 ZINC000040945532    0.0900
31     H31    -1.4357    9.7434   -3.4540 H        1 ZINC000040945532    0.0800
32     H32    -1.1956    9.4969   -1.7029 H        1 ZINC000040945532    0.0800
33     H33    -0.0119    3.8274    1.5402 H        1 ZINC000040945532    0.1500
34     H34    -1.2469    4.5377    3.5162 H        1 ZINC000040945532    0.1400
35     H35    -2.9280    4.0386    5.2705 H        1 ZINC000040945532    0.1300
36     H36    -4.5274    2.4863    6.2528 H        1 ZINC000040945532    0.1300
37     H37    -4.8854    0.2599    5.2760 H        1 ZINC000040945532    0.1300
38     H38    -3.6500   -0.4506    3.3009 H        1 ZINC000040945532    0.1300
39     H39    -1.9770    0.0529    1.5403 H        1 ZINC000040945532    0.1500
@<TRIPOS>BOND
1     1     2     2
2     2     3     2
3     2     4     am
4     2     16    1
5     4     5     1
6     4     26    1
7     5     15    1
8     5     6     2
9     6     7     1
10    7     8     2
11    8     9     1
12    8     15    1
13    9     10    1
14    9     14    1
15    9     11    1
16    11    12    1
17    11    27    1
18    11    28    1
19    12    13    1
20    12    29    1
21    12    30    1
22    13    14    1
23    13    31    1
24    13    32    1
25    16    25    ar
26    16    17    ar
27    17    18    ar
28    17    33    1
29    18    19    ar
30    18    34    1
31    19    24    ar
32    19    20    ar
33    20    21    ar
34    20    35    1
35    21    22    ar
36    21    36    1
37    22    23    ar
38    22    37    1
39    23    24    ar
40    23    38    1
41    24    25    ar
42    25    39    1
@<TRIPOS>SUBSTRUCTURE
1   ZINC000040945532 1     RESIDUE    1   A     ZIN   1
@<TRIPOS>MOLECULE
ZINC000001079524
  48   51    0    0    0
SMALL
NO_CHARGES
@<TRIPOS>ATOM
   1 C1            -1.4697    -0.4209    -0.0318 C.3     
   2 C2             0.0021    -0.0041     0.0020 C.3     
   3 H3             0.4355    -0.2785     0.9638 H       
   4 C4             0.1063     1.4872    -0.1887 C.ar    
   5 C5            -0.1086     2.0411    -1.4368 C.ar    
   6 C6            -0.0130     3.4090    -1.6118 C.ar    
   7 C7             0.2971     4.2230    -0.5385 C.ar    
   8 C8             0.5112     3.6692     0.7099 C.ar    
   9 C9             0.4114     2.3017     0.8857 C.ar    
  10 N10            0.7294    -0.6876    -1.0758 N.3     
  11 C11            0.5510    -2.1439    -0.9905 C.3     
  12 C12            0.9845    -2.7936    -2.3101 C.3     
  13 N13            2.3140    -2.2835    -2.6609 N.pl3   
  14 C14            3.2180    -2.7822    -3.5527 C.ar    
  15 C15            3.2020    -3.8858    -4.3988 C.ar    
  16 C16            4.3215    -4.0952    -5.1852 C.ar    
  17 C17            5.4216    -3.2460    -5.1402 C.ar    
  18 N18            6.5220    -3.5152    -5.9615 N.am    
  19 S19            6.2898    -3.9230    -7.5496 S.o2    
  20 C20            5.5654    -2.4375    -8.2972 C.3     
  21 O21            7.6012    -4.1442    -8.0500 O.2     
  22 O22            5.3355    -4.9750    -7.5053 O.2     
  23 C23            5.4592    -2.1381    -4.3037 C.ar    
  24 C24            4.3354    -1.9114    -3.5013 C.ar    
  25 N25            4.0505    -0.9524    -2.6001 N.2     
  26 C26            2.8667    -1.1616    -2.1013 C.2     
  27 C27            2.1566    -0.3253    -1.0617 C.3     
  28 H28           -1.8673    -0.2691    -1.0352 H       
  29 H29           -1.5554    -1.4736     0.2377 H       
  30 H30           -2.0347     0.1831     0.6782 H       
  31 H31           -0.3510     1.4051    -2.2754 H       
  32 H32           -0.1803     3.8416    -2.5871 H       
  33 H33            0.3726     5.2917    -0.6753 H       
  34 H34            0.7539     4.3052     1.5484 H       
  35 H35            0.5786     1.8691     1.8610 H       
  36 H36            1.1589    -2.5369    -0.1756 H       
  37 H37           -0.4984    -2.3705    -0.8019 H       
  38 H38            1.0265    -3.8762    -2.1900 H       
  39 H39            0.2739    -2.5381    -3.0961 H       
  40 H40            2.3523    -4.5513    -4.4401 H       
  41 H41            4.3413    -4.9435    -5.8533 H       
  42 H42            7.4209    -3.4628    -5.6007 H       
  43 H43            6.2569    -1.6020    -8.1886 H       
  44 H44            5.3772    -2.6182    -9.3556 H       
  45 H45            4.6267    -2.1997    -7.7967 H       
  46 H46            6.3164    -1.4819    -4.2735 H       
  47 H47            2.2694     0.7322    -1.3008 H       
  48 H48            2.5781    -0.5271    -0.0769 H       
@<TRIPOS>BOND
   1    1    2 1
   2    1   28 1
   3    1   29 1
   4    1   30 1
   5    2    3 1
   6    2    4 1
   7    2   10 1
   8    4    9 ar
   9    4    5 ar
  10    5    6 ar
  11    5   31 1
  12    6    7 ar
  13    6   32 1
  14    7    8 ar
  15    7   33 1
  16    8    9 ar
  17    8   34 1
  18    9   35 1
  19   10   27 1
  20   10   11 1
  21   11   12 1
  22   11   36 1
  23   11   37 1
  24   12   13 1
  25   12   38 1
  26   12   39 1
  27   13   26 1
  28   13   14 1
  29   14   24 ar
  30   14   15 ar
  31   15   16 ar
  32   15   40 1
  33   16   17 ar
  34   16   41 1
  35   17   18 1
  36   17   23 ar
  37   18   19 am
  38   18   42 1
  39   19   20 1
  40   19   21 2
  41   19   22 2
  42   20   43 1
  43   20   44 1
  44   20   45 1
  45   23   24 ar
  46   23   46 1
  47   24   25 1
  48   25   26 2
  49   26   27 1
  50   27   47 1
  51   27   48 1

@<TRIPOS>MOLECULE
ZINC000001079524
  47   50    0    0    0
SMALL
NO_CHARGES
@<TRIPOS>ATOM
   1 C1            -1.4697    -0.4209    -0.0318 C.3     
   2 C2             0.0021    -0.0041     0.0020 C.3     
   3 H3             0.4355    -0.2785     0.9638 H       
   4 C4             0.1063     1.4872    -0.1887 C.ar    
   5 C5            -0.1086     2.0411    -1.4368 C.ar    
   6 C6            -0.0130     3.4090    -1.6118 C.ar    
   7 C7             0.2971     4.2230    -0.5385 C.ar    
   8 C8             0.5112     3.6692     0.7099 C.ar    
   9 C9             0.4114     2.3017     0.8857 C.ar    
  10 N10            0.7294    -0.6876    -1.0758 N.3     
  11 C11            0.5510    -2.1439    -0.9905 C.3     
  12 C12            0.9845    -2.7936    -2.3101 C.3     
  13 N13            2.3140    -2.2835    -2.6609 N.pl3   
  14 C14            3.2180    -2.7822    -3.5527 C.ar    
  15 C15            3.2020    -3.8858    -4.3988 C.ar    
  16 C16            4.3215    -4.0952    -5.1852 C.ar    
  17 C17            5.4216    -3.2460    -5.1402 C.ar    
  18 N18            6.5220    -3.5152    -5.9615 N.pl3   
  19 S19            6.5018    -4.8297    -6.9684 S.o2    
  20 C20            8.1038    -4.7741    -7.8176 C.3     
  21 O21            6.4422    -5.9441    -6.0887 O.2     
  22 O22            5.4452    -4.5577    -7.8788 O.2     
  23 C23            5.4592    -2.1381    -4.3037 C.ar    
  24 C24            4.3354    -1.9114    -3.5013 C.ar    
  25 N25            4.0505    -0.9524    -2.6001 N.2     
  26 C26            2.8667    -1.1616    -2.1013 C.2     
  27 C27            2.1566    -0.3253    -1.0617 C.3     
  28 H28           -1.8673    -0.2691    -1.0352 H       
  29 H29           -1.5554    -1.4736     0.2377 H       
  30 H30           -2.0347     0.1831     0.6782 H       
  31 H31           -0.3510     1.4051    -2.2754 H       
  32 H32           -0.1803     3.8416    -2.5871 H       
  33 H33            0.3726     5.2917    -0.6753 H       
  34 H34            0.7539     4.3052     1.5484 H       
  35 H35            0.5786     1.8691     1.8610 H       
  36 H36            1.1589    -2.5369    -0.1756 H       
  37 H37           -0.4984    -2.3705    -0.8019 H       
  38 H38            1.0265    -3.8762    -2.1900 H       
  39 H39            0.2739    -2.5381    -3.0961 H       
  40 H40            2.3523    -4.5513    -4.4401 H       
  41 H41            4.3413    -4.9435    -5.8533 H       
  42 H42            8.9067    -4.8365    -7.0831 H       
  43 H43            8.1779    -5.6135    -8.5090 H       
  44 H44            8.1894    -3.8390    -8.3710 H       
  45 H45            6.3164    -1.4819    -4.2735 H       
  46 H46            2.2694     0.7322    -1.3008 H       
  47 H47            2.5781    -0.5271    -0.0769 H       
@<TRIPOS>BOND
   1    1    2 1
   2    1   28 1
   3    1   29 1
   4    1   30 1
   5    2    3 1
   6    2    4 1
   7    2   10 1
   8    4    9 ar
   9    4    5 ar
  10    5    6 ar
  11    5   31 1
  12    6    7 ar
  13    6   32 1
  14    7    8 ar
  15    7   33 1
  16    8    9 ar
  17    8   34 1
  18    9   35 1
  19   10   27 1
  20   10   11 1
  21   11   12 1
  22   11   36 1
  23   11   37 1
  24   12   13 1
  25   12   38 1
  26   12   39 1
  27   13   26 1
  28   13   14 1
  29   14   24 ar
  30   14   15 ar
  31   15   16 ar
  32   15   40 1
  33   16   17 ar
  34   16   41 1
  35   17   18 1
  36   17   23 ar
  37   18   19 1
  38   19   20 1
  39   19   21 2
  40   19   22 2
  41   20   42 1
  42   20   43 1
  43   20   44 1
  44   23   24 ar
  45   23   45 1
  46   24   25 1
  47   25   26 2
  48   26   27 1
  49   27   46 1
  50   27   47 1
@<TRIPOS>MOLECULE
ZINC000054829604
38    39    1     0     0
SMALL
USER_CHARGES
@<TRIPOS>ATOM
1      C1      0.9552    1.4084   -0.6460 C.3      1 ZINC000054829604   -0.0800
2      C2      0.7600   -0.0797   -0.5102 C.ar     1 ZINC000054829604   -0.1300
3      C3      0.8366   -0.8892   -1.6277 C.ar     1 ZINC000054829604   -0.0900
4      C4      0.6590   -2.2530   -1.5113 C.ar     1 ZINC000054829604   -0.1900
5      C5      0.4004   -2.8191   -0.2620 C.ar     1 ZINC000054829604   -0.0800
6      C6      0.2097   -4.2798   -0.1346 C.2      1 ZINC000054829604    0.5600
7      O7      0.7879   -4.8942    0.7403 O.2      1 ZINC000054829604   -0.5400
8      N8     -0.6053   -4.9300   -0.9888 N.am     1 ZINC000054829604   -0.6200
9      C9     -0.8407   -6.3668   -0.8263 C.3      1 ZINC000054829604    0.0900
10     C10    -1.2558   -4.1999   -2.0797 C.3      1 ZINC000054829604    0.0600
11     C11     0.3229   -2.0023    0.8661 C.ar     1 ZINC000054829604   -0.2100
12     C12     0.5090   -0.6343    0.7397 C.ar     1 ZINC000054829604    0.2800
13     N13     0.4324    0.1883    1.8664 N.pl3    1 ZINC000054829604   -1.0800
14     S14     0.1195   -0.4707    3.3530 S.o2     1 ZINC000054829604    2.6000
15     O15    -1.2072   -0.9767    3.2964 O.2      1 ZINC000054829604   -1.0200
16     O16     1.2446   -1.2746    3.6804 O.2      1 ZINC000054829604   -1.0200
17     C17     0.0981    0.8526    4.5161 C.ar     1 ZINC000054829604   -0.6700
18     C18     1.2639    1.2409    5.1589 C.ar     1 ZINC000054829604    0.0300
19     C19     1.2004    2.2872    6.0658 C.ar     1 ZINC000054829604   -0.1800
20     C20    -0.0155    2.9050    6.2981 C.ar     1 ZINC000054829604    0.2100
21     Cl21   -0.1092    4.2170    7.4310 Cl       1 ZINC000054829604   -0.0300
22     N22    -1.1049    2.5082    5.6675 N.ar     1 ZINC000054829604   -0.4900
23     C23    -1.0795    1.5199    4.7947 C.ar     1 ZINC000054829604    0.2100
24     H24     2.0120    1.6484   -0.5287 H        1 ZINC000054829604    0.0500
25     H25     0.6165    1.7309   -1.6306 H        1 ZINC000054829604    0.0400
26     H26     0.3784    1.9222    0.1230 H        1 ZINC000054829604    0.0700
27     H27     1.0359   -0.4531   -2.5954 H        1 ZINC000054829604    0.1100
28     H28     0.7197   -2.8821   -2.3871 H        1 ZINC000054829604    0.1100
29     H29    -1.7002   -6.5227   -0.1742 H        1 ZINC000054829604    0.0500
30     H30    -1.0374   -6.8152   -1.8001 H        1 ZINC000054829604    0.0700
31     H31     0.0403   -6.8315   -0.3836 H        1 ZINC000054829604    0.0700
32     H32    -1.0214   -3.1386   -1.9971 H        1 ZINC000054829604    0.1100
33     H33    -0.8948   -4.5784   -3.0361 H        1 ZINC000054829604    0.0600
34     H34    -2.3350   -4.3397   -2.0176 H        1 ZINC000054829604    0.0600
35     H35     0.1231   -2.4347    1.8354 H        1 ZINC000054829604    0.1000
36     H36     2.1991    0.7397    4.9578 H        1 ZINC000054829604    0.1600
37     H37     2.0887    2.6157    6.5849 H        1 ZINC000054829604    0.1500
38     H38    -1.9914    1.2229    4.2981 H        1 ZINC000054829604    0.1800
@<TRIPOS>BOND
1     1     2     1
2     1     24    1
3     1     25    1
4     1     26    1
5     2     12    ar
6     2     3     ar
7     3     4     ar
8     3     27    1
9     4     5     ar
10    4     28    1
11    5     6     1
12    5     11    ar
13    6     7     2
14    6     8     am
15    8     9     1
16    8     10    1
17    9     29    1
18    9     30    1
19    9     31    1
20    10    32    1
21    10    33    1
22    10    34    1
23    11    12    ar
24    11    35    1
25    12    13    1
26    13    14    1
27    14    15    2
28    14    16    2
29    14    17    1
30    17    23    ar
31    17    18    ar
32    18    19    ar
33    18    36    1
34    19    20    ar
35    19    37    1
36    20    21    1
37    20    22    ar
38    22    23    ar
39    23    38    1
@<TRIPOS>SUBSTRUCTURE
1   ZINC000054829604 1     RESIDUE    1   A     ZIN   1

@<TRIPOS>MOLECULE
ZINC000054829604
39    40    1     0     0
SMALL
USER_CHARGES
@<TRIPOS>ATOM
1      C1     -0.6028    1.6932    0.0755 C.3      1 ZINC000054829604   -0.1200
2      C2     -0.3363    0.2110    0.0186 C.ar     1 ZINC000054829604   -0.0800
3      C3      0.1170   -0.3627   -1.1541 C.ar     1 ZINC000054829604   -0.1000
4      C4      0.3634   -1.7195   -1.2140 C.ar     1 ZINC000054829604   -0.1400
5      C5      0.1544   -2.5172   -0.0879 C.ar     1 ZINC000054829604   -0.1100
6      C6      0.4176   -3.9709   -0.1494 C.2      1 ZINC000054829604    0.5600
7      O7      0.5432   -4.6098    0.8770 O.2      1 ZINC000054829604   -0.5200
8      N8      0.5182   -4.5876   -1.3436 N.am     1 ZINC000054829604   -0.6200
9      C9      0.5886   -6.0494   -1.4095 C.3      1 ZINC000054829604    0.0800
10     C10     0.5572   -3.7960   -2.5758 C.3      1 ZINC000054829604    0.0600
11     C11    -0.3031   -1.9384    1.0960 C.ar     1 ZINC000054829604   -0.1200
12     C12    -0.5418   -0.5737    1.1477 C.ar     1 ZINC000054829604    0.1400
13     N13    -1.0001    0.0110    2.3309 N.am     1 ZINC000054829604   -1.0500
14     S14    -0.5007   -0.5810    3.7946 S.o2     1 ZINC000054829604    2.7000
15     O15    -1.0436    0.2832    4.7834 O.2      1 ZINC000054829604   -0.9400
16     O16    -0.7458   -1.9804    3.7662 O.2      1 ZINC000054829604   -0.9300
17     C17     1.2487   -0.3837    3.8677 C.ar     1 ZINC000054829604   -0.7400
18     C18     2.0879   -1.3859    3.4047 C.ar     1 ZINC000054829604    0.0500
19     C19     3.4576   -1.1876    3.4813 C.ar     1 ZINC000054829604   -0.1700
20     C20     3.9386   -0.0045    4.0134 C.ar     1 ZINC000054829604    0.2300
21     Cl21    5.6517    0.2573    4.1147 Cl       1 ZINC000054829604   -0.0100
22     N22     3.1094    0.9275    4.4443 N.ar     1 ZINC000054829604   -0.4900
23     C23     1.8011    0.7740    4.3817 C.ar     1 ZINC000054829604    0.2300
24     H24     0.3050    2.2141    0.3799 H        1 ZINC000054829604    0.0800
25     H25    -0.9109    2.0450   -0.9091 H        1 ZINC000054829604    0.0800
26     H26    -1.3953    1.8924    0.7969 H        1 ZINC000054829604    0.0700
27     H27     0.2787    0.2526   -2.0268 H        1 ZINC000054829604    0.1400
28     H28     0.7175   -2.1640   -2.1324 H        1 ZINC000054829604    0.1700
29     H29    -0.4186   -6.4585   -1.4882 H        1 ZINC000054829604    0.0600
30     H30     1.1705   -6.3461   -2.2822 H        1 ZINC000054829604    0.0700
31     H31     1.0664   -6.4312   -0.5073 H        1 ZINC000054829604    0.0800
32     H32     1.4865   -3.2277   -2.6133 H        1 ZINC000054829604    0.0700
33     H33     0.5034   -4.4618   -3.4371 H        1 ZINC000054829604    0.0800
34     H34    -0.2894   -3.1097   -2.5936 H        1 ZINC000054829604    0.0800
35     H35    -0.4667   -2.5506    1.9705 H        1 ZINC000054829604    0.1800
36     H36    -1.6108    0.7638    2.2950 H        1 ZINC000054829604    0.4300
37     H37     1.6838   -2.2996    2.9945 H        1 ZINC000054829604    0.1700
38     H38     4.1406   -1.9470    3.1304 H        1 ZINC000054829604    0.1600
39     H39     1.1538    1.5588    4.7443 H        1 ZINC000054829604    0.1800
@<TRIPOS>BOND
1     1     2     1
2     1     24    1
3     1     25    1
4     1     26    1
5     2     12    ar
6     2     3     ar
7     3     4     ar
8     3     27    1
9     4     5     ar
10    4     28    1
11    5     6     1
12    5     11    ar
13    6     7     2
14    6     8     am
15    8     9     1
16    8     10    1
17    9     29    1
18    9     30    1
19    9     31    1
20    10    32    1
21    10    33    1
22    10    34    1
23    11    12    ar
24    11    35    1
25    12    13    1
26    13    14    am
27    13    36    1
28    14    15    2
29    14    16    2
30    14    17    1
31    17    23    ar
32    17    18    ar
33    18    19    ar
34    18    37    1
35    19    20    ar
36    19    38    1
37    20    21    1
38    20    22    ar
39    22    23    ar
40    23    39    1
@<TRIPOS>SUBSTRUCTURE
1   ZINC000054829604 1     RESIDUE    1   A     ZIN   1
@<TRIPOS>MOLECULE
ZINC000057498959
46    48    1     0     0
SMALL
USER_CHARGES
@<TRIPOS>ATOM
1      C1     -2.5760   -8.0370    4.1912 C.3      1 ZINC000057498959   -0.1300
2      C2     -1.9198   -7.1746    3.1440 C.ar     1 ZINC000057498959   -0.0300
3      C3     -1.4460   -5.9203    3.4792 C.ar     1 ZINC000057498959   -0.1400
4      C4     -0.8440   -5.1292    2.5184 C.ar     1 ZINC000057498959   -0.0100
5      C5     -0.7155   -5.5928    1.2227 C.ar     1 ZINC000057498959   -0.6800
6      S6      0.0513   -4.5844   -0.0019 S.o2     1 ZINC000057498959    2.6900
7      O7     -0.4062   -5.0625   -1.2594 O.2      1 ZINC000057498959   -0.9500
8      O8     -0.1141   -3.2391    0.4250 O.2      1 ZINC000057498959   -0.9400
9      N9      1.6767   -4.8961    0.0538 N.am     1 ZINC000057498959   -1.0600
10     C10     2.4044   -4.6092    1.2129 C.ar     1 ZINC000057498959    0.1400
11     C11     2.6974   -3.2916    1.5408 C.ar     1 ZINC000057498959   -0.1000
12     C12     3.4154   -3.0087    2.6854 C.ar     1 ZINC000057498959   -0.0900
13     C13     3.8449   -4.0408    3.5085 C.ar     1 ZINC000057498959    0.1200
14     N14     4.5754   -3.7527    4.6720 N.am     1 ZINC000057498959   -0.5300
15     C15     3.9060   -3.4824    5.8026 C.2      1 ZINC000057498959    0.5200
16     O16     2.6937   -3.4838    5.7904 O.2      1 ZINC000057498959   -0.4900
17     C17     4.6311   -3.1776    7.0868 C.3      1 ZINC000057498959   -0.1400
18     C18     5.9829   -2.5338    6.7605 C.3      1 ZINC000057498959   -0.1300
19     C19     6.7560   -3.4697    5.8252 C.3      1 ZINC000057498959   -0.1400
20     C20     5.9154   -3.7639    4.6109 C.2      1 ZINC000057498959    0.5200
21     O21     6.4601   -4.0079    3.5557 O.2      1 ZINC000057498959   -0.4900
22     C22     3.5519   -5.3577    3.1814 C.ar     1 ZINC000057498959   -0.0900
23     C23     2.8294   -5.6412    2.0397 C.ar     1 ZINC000057498959   -0.1000
24     C24    -1.1881   -6.8481    0.8877 C.ar     1 ZINC000057498959   -0.0200
25     C25    -1.7865   -7.6406    1.8491 C.ar     1 ZINC000057498959   -0.1100
26     C26    -2.3017   -9.0089    1.4839 C.3      1 ZINC000057498959   -0.1200
27     H27    -1.8204   -8.6493    4.6833 H        1 ZINC000057498959    0.0800
28     H28    -3.0664   -7.4023    4.9293 H        1 ZINC000057498959    0.0700
29     H29    -3.3159   -8.6829    3.7186 H        1 ZINC000057498959    0.0800
30     H30    -1.5465   -5.5580    4.4917 H        1 ZINC000057498959    0.1300
31     H31    -0.4745   -4.1487    2.7802 H        1 ZINC000057498959    0.1400
32     H32     2.1240   -5.2778   -0.7177 H        1 ZINC000057498959    0.4300
33     H33     2.3639   -2.4886    0.9001 H        1 ZINC000057498959    0.1500
34     H34     3.6433   -1.9843    2.9404 H        1 ZINC000057498959    0.1300
35     H35     4.0355   -2.4898    7.6870 H        1 ZINC000057498959    0.1200
36     H36     4.7922   -4.1015    7.6422 H        1 ZINC000057498959    0.1100
37     H37     5.8223   -1.5749    6.2679 H        1 ZINC000057498959    0.0800
38     H38     6.5492   -2.3857    7.6800 H        1 ZINC000057498959    0.1000
39     H39     7.6866   -2.9917    5.5192 H        1 ZINC000057498959    0.1200
40     H40     6.9778   -4.4020    6.3446 H        1 ZINC000057498959    0.1100
41     H41     3.8862   -6.1604    3.8220 H        1 ZINC000057498959    0.1300
42     H42     2.6011   -6.6657    1.7854 H        1 ZINC000057498959    0.1400
43     H43    -1.0874   -7.2106   -0.1247 H        1 ZINC000057498959    0.1400
44     H44    -1.5116   -9.7454    1.6297 H        1 ZINC000057498959    0.0700
45     H45    -3.1524   -9.2580    2.1182 H        1 ZINC000057498959    0.0700
46     H46    -2.6138   -9.0128    0.4395 H        1 ZINC000057498959    0.0700
@<TRIPOS>BOND
1     1     2     1
2     1     27    1
3     1     28    1
4     1     29    1
5     2     25    ar
6     2     3     ar
7     3     4     ar
8     3     30    1
9     4     5     ar
10    4     31    1
11    5     6     1
12    5     24    ar
13    6     7     2
14    6     8     2
15    6     9     am
16    9     10    1
17    9     32    1
18    10    23    ar
19    10    11    ar
20    11    12    ar
21    11    33    1
22    12    13    ar
23    12    34    1
24    13    14    1
25    13    22    ar
26    14    20    am
27    14    15    am
28    15    16    2
29    15    17    1
30    17    18    1
31    17    35    1
32    17    36    1
33    18    19    1
34    18    37    1
35    18    38    1
36    19    20    1
37    19    39    1
38    19    40    1
39    20    21    2
40    22    23    ar
41    22    41    1
42    23    42    1
43    24    25    ar
44    24    43    1
45    25    26    1
46    26    44    1
47    26    45    1
48    26    46    1
@<TRIPOS>SUBSTRUCTURE
1   ZINC000057498959 1     RESIDUE    1   A     ZIN   1

@<TRIPOS>MOLECULE
ZINC000057498959
45    47    1     0     0
SMALL
USER_CHARGES
@<TRIPOS>ATOM
1      C1     -0.0003    1.5067    0.0679 C.3      1 ZINC000057498959   -0.1200
2      C2      0.0792    0.0128    0.2495 C.ar     1 ZINC000057498959   -0.0500
3      C3     -0.5537   -0.8270   -0.6474 C.ar     1 ZINC000057498959   -0.1400
4      C4     -0.4808   -2.1975   -0.4808 C.ar     1 ZINC000057498959   -0.0300
5      C5      0.2253   -2.7279    0.5825 C.ar     1 ZINC000057498959   -0.6200
6      S6      0.3177   -4.4745    0.7951 S.o2     1 ZINC000057498959    2.6000
7      O7      0.5879   -4.6973    2.1723 O.2      1 ZINC000057498959   -1.0300
8      O8     -0.8109   -5.0205    0.1263 O.2      1 ZINC000057498959   -1.0300
9      N9      1.6517   -4.9994   -0.0340 N.pl3    1 ZINC000057498959   -1.0900
10     C10     1.9791   -6.3588   -0.0431 C.ar     1 ZINC000057498959    0.2900
11     C11     1.1823   -7.2699    0.6384 C.ar     1 ZINC000057498959   -0.2600
12     C12     1.5056   -8.6120    0.6287 C.ar     1 ZINC000057498959   -0.0400
13     C13     2.6271   -9.0510   -0.0617 C.ar     1 ZINC000057498959   -0.0100
14     N14     2.9557  -10.4157   -0.0709 N.am     1 ZINC000057498959   -0.5000
15     C15     2.4542  -11.1926   -1.0425 C.2      1 ZINC000057498959    0.5100
16     O16     1.7259  -10.7028   -1.8788 O.2      1 ZINC000057498959   -0.4900
17     C17     2.7786  -12.6614   -1.1150 C.3      1 ZINC000057498959   -0.1400
18     C18     3.0470  -13.1876    0.2990 C.3      1 ZINC000057498959   -0.1200
19     C19     4.1584  -12.3429    0.9312 C.3      1 ZINC000057498959   -0.1400
20     C20     3.7633  -10.8904    0.8893 C.2      1 ZINC000057498959    0.5100
21     O21     4.1767  -10.1370    1.7444 O.2      1 ZINC000057498959   -0.4900
22     C22     3.4235   -8.1409   -0.7433 C.ar     1 ZINC000057498959   -0.0500
23     C23     3.0979   -6.7993   -0.7385 C.ar     1 ZINC000057498959   -0.1700
24     C24     0.8595   -1.8878    1.4789 C.ar     1 ZINC000057498959   -0.0200
25     C25     0.7899   -0.5178    1.3101 C.ar     1 ZINC000057498959   -0.1200
26     C26     1.4812    0.3979    2.2872 C.3      1 ZINC000057498959   -0.1100
27     H27     0.8281    1.8414   -0.5565 H        1 ZINC000057498959    0.0700
28     H28    -0.9443    1.7647   -0.4120 H        1 ZINC000057498959    0.0700
29     H29     0.0580    1.9946    1.0409 H        1 ZINC000057498959    0.0700
30     H30    -1.1055   -0.4126   -1.4782 H        1 ZINC000057498959    0.1300
31     H31    -0.9759   -2.8537   -1.1812 H        1 ZINC000057498959    0.1400
32     H32     0.3102   -6.9283    1.1761 H        1 ZINC000057498959    0.1000
33     H33     0.8861   -9.3204    1.1586 H        1 ZINC000057498959    0.1000
34     H34     1.9364  -13.1994   -1.5501 H        1 ZINC000057498959    0.1100
35     H35     3.6645  -12.8087   -1.7327 H        1 ZINC000057498959    0.1100
36     H36     2.1400  -13.1065    0.8980 H        1 ZINC000057498959    0.0800
37     H37     3.3632  -14.2294    0.2479 H        1 ZINC000057498959    0.0900
38     H38     4.3073  -12.6522    1.9657 H        1 ZINC000057498959    0.1100
39     H39     5.0838  -12.4811    0.3720 H        1 ZINC000057498959    0.1100
40     H40     4.2959   -8.4829   -1.2803 H        1 ZINC000057498959    0.1000
41     H41     3.7173   -6.0913   -1.2692 H        1 ZINC000057498959    0.1200
42     H42     1.4116   -2.3022    2.3095 H        1 ZINC000057498959    0.1400
43     H43     2.4985    0.5909    1.9469 H        1 ZINC000057498959    0.0700
44     H44     0.9350    1.3389    2.3522 H        1 ZINC000057498959    0.0700
45     H45     1.5100   -0.0740    3.2694 H        1 ZINC000057498959    0.0700
@<TRIPOS>BOND
1     1     2     1
2     1     27    1
3     1     28    1
4     1     29    1
5     2     25    ar
6     2     3     ar
7     3     4     ar
8     3     30    1
9     4     5     ar
10    4     31    1
11    5     6     1
12    5     24    ar
13    6     7     2
14    6     8     2
15    6     9     1
16    9     10    1
17    10    23    ar
18    10    11    ar
19    11    12    ar
20    11    32    1
21    12    13    ar
22    12    33    1
23    13    14    1
24    13    22    ar
25    14    20    am
26    14    15    am
27    15    16    2
28    15    17    1
29    17    18    1
30    17    34    1
31    17    35    1
32    18    19    1
33    18    36    1
34    18    37    1
35    19    20    1
36    19    38    1
37    19    39    1
38    20    21    2
39    22    23    ar
40    22    40    1
41    23    41    1
42    24    25    ar
43    24    42    1
44    25    26    1
45    26    43    1
46    26    44    1
47    26    45    1
@<TRIPOS>SUBSTRUCTURE
1   ZINC000057498959 1     RESIDUE    1   A     ZIN   1
@<TRIPOS>MOLECULE
ZINC000058174617
39    42    1     0     0
SMALL
USER_CHARGES
@<TRIPOS>ATOM
1      C1     -0.3328    2.2918    0.6262 C.3      1 ZINC000058174617   -0.0900
2      C2     -0.2813    0.8051    0.3850 C.2      1 ZINC000058174617    0.1500
3      N3     -0.3063    0.2120   -0.7688 N.2      1 ZINC000058174617   -0.2600
4      O4     -0.2397   -1.1880   -0.5879 O.3      1 ZINC000058174617   -0.0700
5      C5     -0.1710   -1.4677    0.7289 C.ar     1 ZINC000058174617    0.3400
6      N6     -0.0947   -2.6002    1.4119 N.ar     1 ZINC000058174617   -0.4800
7      C7     -0.0380   -2.6121    2.7274 C.ar     1 ZINC000058174617    0.2700
8      C8     -0.0560   -1.4383    3.4640 C.ar     1 ZINC000058174617   -0.7800
9      S9      0.0213   -1.4915    5.2235 S.o2     1 ZINC000058174617    2.7100
10     O10    -0.4382   -0.2281    5.6837 O.2      1 ZINC000058174617   -0.9400
11     O11    -0.5702   -2.7231    5.6140 O.2      1 ZINC000058174617   -0.9400
12     N12     1.6209   -1.5878    5.6411 N.am     1 ZINC000058174617   -1.1100
13     C13     2.5332   -0.4922    5.3043 C.3      1 ZINC000058174617    0.2000
14     H14     2.1366    0.0370    4.4378 H        1 ZINC000058174617    0.0900
15     C15     2.5907    0.4706    6.4775 C.3      1 ZINC000058174617   -0.1500
16     C16     3.5135    1.6432    6.1161 C.3      1 ZINC000058174617   -0.1100
17     S17     5.2179    1.0168    6.1386 S.3      1 ZINC000058174617   -0.1000
18     C18     5.0865   -0.4923    5.2334 C.ar     1 ZINC000058174617   -0.0800
19     C19     6.2695   -1.1011    4.8119 C.ar     1 ZINC000058174617   -0.0700
20     C20     6.2385   -2.2864    4.1099 C.ar     1 ZINC000058174617   -0.1300
21     C21     5.0194   -2.8777    3.8242 C.ar     1 ZINC000058174617    0.1000
22     F22     4.9767   -4.0435    3.1427 F        1 ZINC000058174617   -0.1300
23     C23     3.8483   -2.2757    4.2364 C.ar     1 ZINC000058174617   -0.1300
24     C24     3.8685   -1.0731    4.9425 C.ar     1 ZINC000058174617   -0.0800
25     C25    -0.1347   -0.2253    2.8057 C.ar     1 ZINC000058174617    0.1200
26     C26    -0.1874   -0.2374    1.4091 C.ar     1 ZINC000058174617   -0.2700
27     H27     0.6803    2.6938    0.6347 H        1 ZINC000058174617    0.1000
28     H28    -0.9065    2.7691   -0.1682 H        1 ZINC000058174617    0.1000
29     H29    -0.8095    2.4878    1.5867 H        1 ZINC000058174617    0.1000
30     H30     0.0235   -3.5584    3.2442 H        1 ZINC000058174617    0.1900
31     H31     1.9538   -2.3697    6.1089 H        1 ZINC000058174617    0.4300
32     H32     1.5899    0.8462    6.6906 H        1 ZINC000058174617    0.1100
33     H33     2.9826   -0.0454    7.3540 H        1 ZINC000058174617    0.0900
34     H34     3.2682    2.0150    5.1213 H        1 ZINC000058174617    0.1000
35     H35     3.4023    2.4420    6.8493 H        1 ZINC000058174617    0.1200
36     H36     7.2188   -0.6383    5.0380 H        1 ZINC000058174617    0.1400
37     H37     7.1579   -2.7504    3.7846 H        1 ZINC000058174617    0.1500
38     H38     2.9017   -2.7441    4.0104 H        1 ZINC000058174617    0.1400
39     H39    -0.1504    0.7048    3.3544 H        1 ZINC000058174617    0.1700
@<TRIPOS>BOND
1     1     2     1
2     1     27    1
3     1     28    1
4     1     29    1
5     2     26    1
6     2     3     2
7     3     4     1
8     4     5     1
9     5     26    ar
10    5     6     ar
11    6     7     ar
12    7     8     ar
13    7     30    1
14    8     9     1
15    8     25    ar
16    9     10    2
17    9     11    2
18    9     12    am
19    12    13    1
20    12    31    1
21    13    14    1
22    13    24    1
23    13    15    1
24    15    16    1
25    15    32    1
26    15    33    1
27    16    17    1
28    16    34    1
29    16    35    1
30    17    18    1
31    18    24    ar
32    18    19    ar
33    19    20    ar
34    19    36    1
35    20    21    ar
36    20    37    1
37    21    22    1
38    21    23    ar
39    23    24    ar
40    23    38    1
41    25    26    ar
42    25    39    1
@<TRIPOS>SUBSTRUCTURE
1   ZINC000058174617 1     RESIDUE    1   A     ZIN   1
@<TRIPOS>MOLECULE
ZINC000058208703
  40   42    0    0    0
SMALL
USER_CHARGES
NO_NAME
@<TRIPOS>ATOM
    1 C1       -0.0184     1.5028     0.0103 C.3    1 <0>      -0.0800
    2 C2        0.0021    -0.0041     0.0020 C.2    1 <0>       0.0600
    3 C3       -1.0996    -0.8040     0.0028 C.2    1 <0>      -0.1600
    4 C4       -2.5090    -0.3785     0.0117 C.2    1 <0>       0.6000
    5 O5       -3.0960    -0.1965    -1.0380 O.2    1 <0>      -0.5200
    6 N6       -3.1488    -0.1906     1.1829 N.am   1 <0>      -0.6000
    7 C7       -2.4418    -0.4097     2.4472 C.3    1 <0>       0.0800
    8 C8       -4.5513     0.2328     1.1918 C.3    1 <0>       0.1600
    9 C9       -5.4428    -0.9822     1.1887 C.ar   1 <0>      -0.1100
   10 C10      -5.8525    -1.5356    -0.0097 C.ar   1 <0>      -0.0500
   11 C11      -6.6704    -2.6503    -0.0125 C.ar   1 <0>      -0.1200
   12 C12      -7.0781    -3.2114     1.1830 C.ar   1 <0>      -0.0700
   13 C13      -6.6675    -2.6583     2.3818 C.ar   1 <0>      -0.1900
   14 C14      -7.1124    -3.2697     3.6853 C.3    1 <0>       0.5100
   15 F15      -7.9271    -4.3773     3.4268 F      1 <0>      -0.1800
   16 F16      -5.9910    -3.6762     4.4165 F      1 <0>      -0.1800
   17 F17      -7.8320    -2.3234     4.4227 F      1 <0>      -0.1800
   18 C18      -5.8464    -1.5465     2.3846 C.ar   1 <0>      -0.0600
   19 C19      -0.5861    -2.1834    -0.0080 C.2    1 <0>      -0.2700
   20 C20       0.8044    -2.0701    -0.0143 C.2    1 <0>       0.2900
   21 N21       1.5462    -3.1885    -0.0247 N.2    1 <0>      -0.5100
   22 C22       0.9938    -4.3691    -0.0290 C.2    1 <0>       0.4100
   23 N23      -0.3511    -4.5421    -0.0237 N.am   1 <0>      -0.6400
   24 C24      -1.1728    -3.4671    -0.0123 C.2    1 <0>       0.5600
   25 O25      -2.3842    -3.6033    -0.0074 O.2    1 <0>      -0.5000
   26 O26       1.1069    -0.7613    -0.0131 O.3    1 <0>      -0.1500
   27 H27       1.0042     1.8801     0.0026 H      1 <0>       0.0900
   28 H28      -0.5455     1.8639    -0.8728 H      1 <0>       0.1000
   29 H29      -0.5286     1.8543     0.9071 H      1 <0>       0.1000
   30 H30      -1.9695     0.5197     2.7652 H      1 <0>       0.0600
   31 H31      -3.1508    -0.7358     3.2081 H      1 <0>       0.0800
   32 H32      -1.6792    -1.1761     2.3089 H      1 <0>       0.0700
   33 H33      -4.7466     0.8245     2.0861 H      1 <0>       0.0900
   34 H34      -4.7546     0.8350     0.3062 H      1 <0>       0.1000
   35 H35      -5.5340    -1.0972    -0.9439 H      1 <0>       0.1400
   36 H36      -6.9911    -3.0824    -0.9489 H      1 <0>       0.1400
   37 H37      -7.7176    -4.0817     1.1808 H      1 <0>       0.1400
   38 H38      -5.5257    -1.1144     3.3210 H      1 <0>       0.1300
   39 H39       1.6306    -5.2414    -0.0374 H      1 <0>       0.2300
   40 H40      -0.7245    -5.4373    -0.0278 H      1 <0>       0.4300
@<TRIPOS>BOND
   1    1    2 1
   2    1   27 1
   3    1   28 1
   4    1   29 1
   5    2   26 1
   6    2    3 2
   7    3    4 1
   8    3   19 1
   9    4    5 2
  10    4    6 am
  11    6    7 1
  12    6    8 1
  13    7   30 1
  14    7   31 1
  15    7   32 1
  16    8    9 1
  17    8   33 1
  18    8   34 1
  19    9   18 ar
  20    9   10 ar
  21   10   11 ar
  22   10   35 1
  23   11   12 ar
  24   11   36 1
  25   12   13 ar
  26   12   37 1
  27   13   14 1
  28   13   18 ar
  29   14   15 1
  30   14   16 1
  31   14   17 1
  32   18   38 1
  33   19   24 1
  34   19   20 2
  35   20   21 1
  36   20   26 1
  37   21   22 2
  38   22   23 1
  39   22   39 1
  40   23   24 am
  41   23   40 1
  42   24   25 2
@<TRIPOS>MOLECULE
ZINC000019960076
42    46    1     0     0
SMALL
USER_CHARGES
@<TRIPOS>ATOM
1      C1     -3.5371    4.4341   -0.0050 C.3      1 ZINC000019960076   -0.1400
2      S2     -2.4732    2.9845   -0.2450 S.3      1 ZINC000019960076    0.0200
3      C3     -3.5993    1.6375   -0.0965 C.2      1 ZINC000019960076    0.2000
4      N4     -3.2818    0.3615   -0.1936 N.2      1 ZINC000019960076   -0.2600
5      N5     -4.4571   -0.3560   -0.0089 N.pl3    1 ZINC000019960076   -0.4000
6      C6     -5.4518    0.5539    0.1812 C.2      1 ZINC000019960076    0.4400
7      N7     -4.9127    1.7461    0.1388 N.2      1 ZINC000019960076   -0.4900
8      N8     -6.7470    0.1671    0.3630 N.2      1 ZINC000019960076   -0.4200
9      C9     -6.9982   -1.0600    0.7284 C.2      1 ZINC000019960076    0.2400
10     C10    -8.4449   -1.4363    0.9221 C.3      1 ZINC000019960076   -0.0800
11     C11    -8.7175   -2.8440    0.4013 C.3      1 ZINC000019960076    0.0100
12     H12    -9.7560   -3.1108    0.5979 H        1 ZINC000019960076    0.1300
13     C13    -8.4569   -2.8920   -1.0822 C.2      1 ZINC000019960076   -0.0400
14     C14    -8.1393   -3.9909   -1.7900 C.2      1 ZINC000019960076   -0.1900
15     C15    -7.9844   -3.5816   -3.1344 C.2      1 ZINC000019960076   -0.2000
16     C16    -8.2168   -2.2571   -3.1677 C.2      1 ZINC000019960076   -0.0300
17     O17    -8.5082   -1.8458   -1.9228 O.3      1 ZINC000019960076   -0.1600
18     C18    -7.7900   -3.8311    1.1188 C.3      1 ZINC000019960076   -0.1600
19     C19    -6.3656   -3.4613    0.7903 C.2      1 ZINC000019960076    0.3800
20     O20    -5.6026   -4.3058    0.3866 O.2      1 ZINC000019960076   -0.4200
21     C21    -5.8919   -2.0445    0.9632 C.3      1 ZINC000019960076   -0.1600
22     C22    -4.7116   -1.7961    0.0128 C.3      1 ZINC000019960076    0.2600
23     H23    -3.8283   -2.3224    0.3746 H        1 ZINC000019960076    0.1400
24     C24    -5.0608   -2.2759   -1.3725 C.2      1 ZINC000019960076   -0.2400
25     C25    -4.8890   -3.5202   -1.8213 C.2      1 ZINC000019960076   -0.0800
26     C26    -5.2845   -3.7274   -3.1316 C.2      1 ZINC000019960076   -0.1300
27     C27    -5.7774   -2.6514   -3.7468 C.2      1 ZINC000019960076   -0.1900
28     S28    -5.7643   -1.2827   -2.6422 S.3      1 ZINC000019960076    0.1200
29     H29    -2.9370    5.3412   -0.0772 H        1 ZINC000019960076    0.1100
30     H30    -4.3107    4.4482   -0.7727 H        1 ZINC000019960076    0.0900
31     H31    -4.0028    4.3840    0.9792 H        1 ZINC000019960076    0.0900
32     H32    -8.6866   -1.3943    1.9842 H        1 ZINC000019960076    0.1200
33     H33    -9.0744   -0.7274    0.3842 H        1 ZINC000019960076    0.1200
34     H34    -8.0240   -4.9933   -1.4050 H        1 ZINC000019960076    0.1400
35     H35    -7.7284   -4.2114   -3.9735 H        1 ZINC000019960076    0.1400
36     H36    -8.1793   -1.6312   -4.0471 H        1 ZINC000019960076    0.1900
37     H37    -7.9476   -3.7679    2.1955 H        1 ZINC000019960076    0.1200
38     H38    -7.9955   -4.8450    0.7753 H        1 ZINC000019960076    0.1100
39     H39    -5.5327   -1.9233    1.9852 H        1 ZINC000019960076    0.1500
40     H40    -4.4726   -4.3064   -1.2090 H        1 ZINC000019960076    0.1600
41     H41    -5.1999   -4.6875   -3.6190 H        1 ZINC000019960076    0.1400
42     H42    -6.1334   -2.6254   -4.7661 H        1 ZINC000019960076    0.1600
@<TRIPOS>BOND
1     1     2     1
2     1     29    1
3     1     30    1
4     1     31    1
5     2     3     1
6     3     7     1
7     3     4     2
8     4     5     1
9     5     22    1
10    5     6     1
11    6     7     2
12    6     8     1
13    8     9     2
14    9     21    1
15    9     10    1
16    10    11    1
17    10    32    1
18    10    33    1
19    11    12    1
20    11    13    1
21    11    18    1
22    13    17    1
23    13    14    2
24    14    15    1
25    14    34    1
26    15    16    2
27    15    35    1
28    16    17    1
29    16    36    1
30    18    19    1
31    18    37    1
32    18    38    1
33    19    20    2
34    19    21    1
35    21    22    1
36    21    39    1
37    22    23    1
38    22    24    1
39    24    28    1
40    24    25    2
41    25    26    1
42    25    40    1
43    26    27    2
44    26    41    1
45    27    28    1
46    27    42    1
@<TRIPOS>SUBSTRUCTURE
1   ZINC000019960076 1     RESIDUE    1   A     ZIN   1
@<TRIPOS>MOLECULE
ZINC000064591812
  40   42    0    0    0
SMALL
USER_CHARGES
NO_NAME
@<TRIPOS>ATOM
    1 C1       -0.4121     1.3784     0.3314 C.3    1 <0>      -0.1300
    2 C2       -0.2995    -0.1225     0.2569 C.ar   1 <0>      -0.0200
    3 C3       -0.2839    -0.7542    -0.9726 C.ar   1 <0>      -0.1400
    4 C4       -0.1807    -2.1310    -1.0410 C.ar   1 <0>      -0.0100
    5 C5       -0.0926    -2.8760     0.1201 C.ar   1 <0>      -0.6800
    6 S6        0.0383    -4.6310     0.0329 S.o2   1 <0>       2.6900
    7 O7       -0.4363    -5.1310     1.2755 O.2    1 <0>      -0.9500
    8 O8       -0.5127    -5.0128    -1.2200 O.2    1 <0>      -0.9400
    9 N9        1.6514    -4.9995    -0.0340 N.am   1 <0>      -1.0500
   10 C10       2.4996    -4.6219     1.0136 C.ar   1 <0>       0.1800
   11 C11       2.0359    -4.6401     2.3203 C.ar   1 <0>      -0.1500
   12 C12       2.8784    -4.2660     3.3559 C.ar   1 <0>       0.1300
   13 C13       4.1893    -3.8728     3.0804 C.ar   1 <0>       0.0900
   14 C14       4.6477    -3.8558     1.7716 C.ar   1 <0>      -0.0700
   15 C15       3.8082    -4.2347     0.7424 C.ar   1 <0>      -0.0500
   16 Cl16      4.3829    -4.2136    -0.8956 Cl     1 <0>      -0.0400
   17 N17       4.7816    -3.5607     4.3047 N.am   1 <0>      -0.5400
   18 C18       6.1584    -3.0992     4.4985 C.3    1 <0>       0.1000
   19 C19       3.8714    -3.7559     5.2774 C.2    1 <0>       0.6800
   20 O20       4.0654    -3.5752     6.4651 O.2    1 <0>      -0.5400
   21 N21       2.7141    -4.1811     4.7369 N.am   1 <0>      -0.5400
   22 C22       1.4897    -4.5004     5.4754 C.3    1 <0>       0.0900
   23 C23      -0.1069    -2.2442     1.3495 C.ar   1 <0>      -0.0100
   24 C24      -0.2063    -0.8671     1.4178 C.ar   1 <0>      -0.1400
   25 H25       0.5850     1.8187     0.3174 H      1 <0>       0.0800
   26 H26      -0.9822     1.7429    -0.5231 H      1 <0>       0.0700
   27 H27      -0.9203     1.6593     1.2538 H      1 <0>       0.0700
   28 H28      -0.3526    -0.1721    -1.8797 H      1 <0>       0.1400
   29 H29      -0.1691    -2.6246    -2.0015 H      1 <0>       0.1400
   30 H30       2.0086    -5.4769    -0.7991 H      1 <0>       0.4300
   31 H31       1.0212    -4.9443     2.5306 H      1 <0>       0.1800
   32 H32       5.6616    -3.5513     1.5579 H      1 <0>       0.1500
   33 H33       6.1869    -2.0106     4.4497 H      1 <0>       0.0700
   34 H34       6.5183    -3.4287     5.4732 H      1 <0>       0.0900
   35 H35       6.7944    -3.5148     3.7169 H      1 <0>       0.0900
   36 H36       1.6561    -4.3413     6.5408 H      1 <0>       0.1000
   37 H37       0.6805    -3.8550     5.1336 H      1 <0>       0.0800
   38 H38       1.2216    -5.5424     5.3011 H      1 <0>       0.0800
   39 H39      -0.0378    -2.8263     2.2566 H      1 <0>       0.1400
   40 H40      -0.2174    -0.3735     2.3783 H      1 <0>       0.1300
@<TRIPOS>BOND
   1    1    2 1
   2    1   25 1
   3    1   26 1
   4    1   27 1
   5    2   24 ar
   6    2    3 ar
   7    3    4 ar
   8    3   28 1
   9    4    5 ar
  10    4   29 1
  11    5    6 1
  12    5   23 ar
  13    6    7 2
  14    6    8 2
  15    6    9 am
  16    9   10 1
  17    9   30 1
  18   10   15 ar
  19   10   11 ar
  20   11   12 ar
  21   11   31 1
  22   12   21 1
  23   12   13 ar
  24   13   14 ar
  25   13   17 1
  26   14   15 ar
  27   14   32 1
  28   15   16 1
  29   17   18 1
  30   17   19 am
  31   18   33 1
  32   18   34 1
  33   18   35 1
  34   19   20 2
  35   19   21 am
  36   21   22 1
  37   22   36 1
  38   22   37 1
  39   22   38 1
  40   23   24 ar
  41   23   39 1
  42   24   40 1

@<TRIPOS>MOLECULE
ZINC000064591812
  39   41    0    0    0
SMALL
USER_CHARGES
NO_NAME
@<TRIPOS>ATOM
    1 C1        0.1680     1.5470     0.0763 C.3    1 <0>      -0.1200
    2 C2        0.8376     0.1975     0.0397 C.ar   1 <0>      -0.0500
    3 C3        1.1897    -0.4317     1.2192 C.ar   1 <0>      -0.1500
    4 C4        1.8039    -1.6696     1.1856 C.ar   1 <0>      -0.0200
    5 C5        2.0656    -2.2786    -0.0274 C.ar   1 <0>      -0.6200
    6 S6        2.8490    -3.8563    -0.0702 S.o2   1 <0>       2.6000
    7 O7        3.4671    -3.9629    -1.3453 O.2    1 <0>      -1.0300
    8 O8        3.5622    -3.9835     1.1523 O.2    1 <0>      -1.0300
    9 N9        1.6514    -4.9995    -0.0340 N.pl3  1 <0>      -1.0700
   10 C10       1.9754    -6.3563    -0.1487 C.ar   1 <0>       0.3000
   11 C11       3.3042    -6.7527    -0.1523 C.ar   1 <0>      -0.2500
   12 C12       3.6220    -8.0975    -0.2656 C.ar   1 <0>       0.1500
   13 C13       2.6047    -9.0472    -0.3757 C.ar   1 <0>      -0.0100
   14 C14       1.2774    -8.6452    -0.3724 C.ar   1 <0>      -0.0500
   15 C15       0.9634    -7.3055    -0.2532 C.ar   1 <0>      -0.0800
   16 Cl16     -0.6983    -6.8031    -0.2486 Cl     1 <0>      -0.0700
   17 N17       3.2258   -10.2929    -0.4723 N.am   1 <0>      -0.5400
   18 C18       2.5445   -11.5830    -0.6052 C.3    1 <0>       0.1100
   19 C19       4.5583   -10.1066    -0.4231 C.2    1 <0>       0.6800
   20 O20       5.3921   -10.9911    -0.4822 O.2    1 <0>      -0.5800
   21 N21       4.8285    -8.7937    -0.2987 N.am   1 <0>      -0.5500
   22 C22       6.1642    -8.1981    -0.2127 C.3    1 <0>       0.1000
   23 C23       1.7123    -1.6501    -1.2068 C.ar   1 <0>      -0.0200
   24 C24       1.0946    -0.4139    -1.1731 C.ar   1 <0>      -0.1500
   25 H25      -0.9131     1.4151     0.1207 H      1 <0>       0.0700
   26 H26       0.5036     2.0954     0.9565 H      1 <0>       0.0700
   27 H27       0.4292     2.1067    -0.8218 H      1 <0>       0.0700
   28 H28       0.9852     0.0442     2.1669 H      1 <0>       0.1200
   29 H29       2.0796    -2.1608     2.1071 H      1 <0>       0.1400
   30 H30       4.0893    -6.0159    -0.0674 H      1 <0>       0.1100
   31 H31       0.4900    -9.3794    -0.4579 H      1 <0>       0.1300
   32 H32       2.4008   -11.8110    -1.6614 H      1 <0>       0.0600
   33 H33       3.1504   -12.3631    -0.1443 H      1 <0>       0.0800
   34 H34       1.5753   -11.5349    -0.1088 H      1 <0>       0.0800
   35 H35       6.9168    -8.9848    -0.2645 H      1 <0>       0.0900
   36 H36       6.3065    -7.5039    -1.0410 H      1 <0>       0.0700
   37 H37       6.2630    -7.6623     0.7314 H      1 <0>       0.0700
   38 H38       1.9165    -2.1261    -2.1545 H      1 <0>       0.1400
   39 H39       0.8186     0.0771    -2.0946 H      1 <0>       0.1200
@<TRIPOS>BOND
   1    1    2 1
   2    1   25 1
   3    1   26 1
   4    1   27 1
   5    2   24 ar
   6    2    3 ar
   7    3    4 ar
   8    3   28 1
   9    4    5 ar
  10    4   29 1
  11    5    6 1
  12    5   23 ar
  13    6    7 2
  14    6    8 2
  15    6    9 1
  16    9   10 1
  17   10   15 ar
  18   10   11 ar
  19   11   12 ar
  20   11   30 1
  21   12   21 1
  22   12   13 ar
  23   13   14 ar
  24   13   17 1
  25   14   15 ar
  26   14   31 1
  27   15   16 1
  28   17   18 1
  29   17   19 am
  30   18   32 1
  31   18   33 1
  32   18   34 1
  33   19   20 2
  34   19   21 am
  35   21   22 1
  36   22   35 1
  37   22   36 1
  38   22   37 1
  39   23   24 ar
  40   23   38 1
  41   24   39 1
@<TRIPOS>MOLECULE
ZINC000064976518
  43   45    0    0    0
SMALL
NO_CHARGES
@<TRIPOS>ATOM
   1 C1            -5.3350    -6.1842    -0.1601 C.3     
   2 C2            -3.9152    -5.6804    -0.1242 C.ar    
   3 C3            -3.6642    -4.3216    -0.1618 C.ar    
   4 C4            -2.3640    -3.8562    -0.1295 C.ar    
   5 C5            -1.3069    -4.7544    -0.0586 C.ar    
   6 N6             0.0084    -4.2858    -0.0253 N.am    
   7 S7             1.0804    -4.9047     1.0748 S.o2    
   8 O8             1.0325    -6.3175     0.9307 O.2     
   9 O9             2.2764    -4.1496     0.9382 O.2     
  10 C10            0.4463    -4.5464     2.6793 C.ar    
  11 C11            0.0692    -5.5786     3.5158 C.ar    
  12 C12           -0.4293    -5.2966     4.7785 C.ar    
  13 C13           -0.5479    -3.9704     5.1990 C.ar    
  14 C14           -0.1676    -2.9407     4.3517 C.ar    
  15 C15            0.3337    -3.2317     3.0981 C.ar    
  16 C16            0.7475    -2.1129     2.1773 C.3     
  17 N17           -1.0692    -4.0025     6.4902 N.am    
  18 C18           -1.3616    -2.8354     7.3261 C.3     
  19 C19           -1.2590    -5.2890     6.8391 C.2     
  20 O20           -1.7035    -5.6673     7.9069 O.2     
  21 N21           -0.8822    -6.0934     5.8273 N.am    
  22 C22           -0.9394    -7.5573     5.8290 C.3     
  23 C23           -1.5602    -6.1195    -0.0203 C.ar    
  24 C24           -2.8642    -6.5797    -0.0477 C.ar    
  25 F25           -3.1126    -7.9072    -0.0106 F       
  26 H26           -5.7176    -6.2655     0.8573 H       
  27 H27           -5.9535    -5.4878    -0.7263 H       
  28 H28           -5.3609    -7.1639    -0.6374 H       
  29 H29           -4.4858    -3.6229    -0.2170 H       
  30 H30           -2.1695    -2.7943    -0.1597 H       
  31 H31            0.2940    -3.5978    -0.6466 H       
  32 H32            0.1620    -6.6031     3.1869 H       
  33 H33           -0.2582    -1.9137     4.6733 H       
  34 H34            1.7736    -1.8201     2.3995 H       
  35 H35            0.6819    -2.4505     1.1430 H       
  36 H36            0.0862    -1.2588     2.3233 H       
  37 H37           -2.3868    -2.5099     7.1496 H       
  38 H38           -1.2403    -3.1010     8.3762 H       
  39 H39           -0.6752    -2.0270     7.0742 H       
  40 H40           -1.3368    -7.9043     6.7829 H       
  41 H41           -1.5871    -7.8965     5.0206 H       
  42 H42            0.0630    -7.9602     5.6848 H       
  43 H43           -0.7404    -6.8204     0.0345 H       
@<TRIPOS>BOND
   1    1    2 1
   2    1   26 1
   3    1   27 1
   4    1   28 1
   5    2   24 ar
   6    2    3 ar
   7    3    4 ar
   8    3   29 1
   9    4    5 ar
  10    4   30 1
  11    5    6 1
  12    5   23 ar
  13    6    7 am
  14    6   31 1
  15    7    8 2
  16    7    9 2
  17    7   10 1
  18   10   15 ar
  19   10   11 ar
  20   11   12 ar
  21   11   32 1
  22   12   21 1
  23   12   13 ar
  24   13   14 ar
  25   13   17 1
  26   14   15 ar
  27   14   33 1
  28   15   16 1
  29   16   34 1
  30   16   35 1
  31   16   36 1
  32   17   18 1
  33   17   19 am
  34   18   37 1
  35   18   38 1
  36   18   39 1
  37   19   20 2
  38   19   21 am
  39   21   22 1
  40   22   40 1
  41   22   41 1
  42   22   42 1
  43   23   24 ar
  44   23   43 1
  45   24   25 1

@<TRIPOS>MOLECULE
ZINC000064976518
  42   44    0    0    0
SMALL
NO_CHARGES
@<TRIPOS>ATOM
   1 C1            -0.0184     1.5028     0.0103 C.3     
   2 C2             0.0021    -0.0041     0.0020 C.ar    
   3 C3             0.0057    -0.6873    -1.1996 C.ar    
   4 C4             0.0240    -2.0685    -1.2111 C.ar    
   5 C5             0.0392    -2.7724    -0.0136 C.ar    
   6 N6             0.0581    -4.1689    -0.0231 N.pl3   
   7 S7             0.0762    -5.0065     1.4053 S.o2    
   8 O8             1.3251    -4.7228     2.0210 O.2     
   9 O9            -1.1741    -4.7568     2.0328 O.2     
  10 C10            0.0976    -6.7220     1.0038 C.ar    
  11 C11            1.1929    -7.4932     1.3400 C.ar    
  12 C12            1.2094    -8.8433     1.0244 C.ar    
  13 C13            0.1188    -9.4173     0.3681 C.ar    
  14 C14           -0.9759    -8.6347     0.0337 C.ar    
  15 C15           -0.9859    -7.2922     0.3579 C.ar    
  16 C16           -2.1758    -6.4416    -0.0050 C.3     
  17 N17            0.4204   -10.7653     0.1895 N.am    
  18 C18           -0.4407   -11.7580    -0.4581 C.3     
  19 C19            1.6383   -11.0004     0.7129 C.2     
  20 O20            2.2006   -12.0796     0.7225 O.2     
  21 N21            2.1398    -9.8603     1.2241 N.am    
  22 C22            3.4424    -9.7142     1.8785 C.3     
  23 C23            0.0360    -2.0848     1.1932 C.ar    
  24 C24            0.0229    -0.7018     1.1987 C.ar    
  25 F25            0.0198    -0.0312     2.3715 F       
  26 H26            1.0042     1.8801     0.0026 H       
  27 H27           -0.5455     1.8639    -0.8728 H       
  28 H28           -0.5286     1.8543     0.9071 H       
  29 H29           -0.0061    -0.1405    -2.1308 H       
  30 H30            0.0260    -2.6009    -2.1507 H       
  31 H31            2.0348    -7.0456     1.8473 H       
  32 H32           -1.8212    -9.0751    -0.4742 H       
  33 H33           -2.8970    -6.4582     0.8121 H       
  34 H34           -1.8495    -5.4166    -0.1810 H       
  35 H35           -2.6415    -6.8348    -0.9087 H       
  36 H36           -0.2222   -11.7873    -1.5256 H       
  37 H37           -0.2551   -12.7396    -0.0222 H       
  38 H38           -1.4854   -11.4856    -0.3084 H       
  39 H39            3.9527   -10.6774     1.8912 H       
  40 H40            4.0455    -8.9908     1.3299 H       
  41 H41            3.2982    -9.3659     2.9012 H       
  42 H42            0.0474    -2.6292     2.1258 H       
@<TRIPOS>BOND
   1    1    2 1
   2    1   26 1
   3    1   27 1
   4    1   28 1
   5    2   24 ar
   6    2    3 ar
   7    3    4 ar
   8    3   29 1
   9    4    5 ar
  10    4   30 1
  11    5    6 1
  12    5   23 ar
  13    6    7 1
  14    7    8 2
  15    7    9 2
  16    7   10 1
  17   10   15 ar
  18   10   11 ar
  19   11   12 ar
  20   11   31 1
  21   12   21 1
  22   12   13 ar
  23   13   14 ar
  24   13   17 1
  25   14   15 ar
  26   14   32 1
  27   15   16 1
  28   16   33 1
  29   16   34 1
  30   16   35 1
  31   17   18 1
  32   17   19 am
  33   18   36 1
  34   18   37 1
  35   18   38 1
  36   19   20 2
  37   19   21 am
  38   21   22 1
  39   22   39 1
  40   22   40 1
  41   22   41 1
  42   23   24 ar
  43   23   42 1
  44   24   25 1
@<TRIPOS>MOLECULE
ZINC000064976648
  39   41    0    0    0
SMALL
USER_CHARGES
NO_NAME
@<TRIPOS>ATOM
    1 C1       -0.0184     1.5028     0.0103 C.3    1 <0>      -0.0800
    2 C2        0.0021    -0.0041     0.0020 C.ar   1 <0>      -0.1300
    3 C3        0.0058    -0.6885    -1.1974 C.ar   1 <0>      -0.1100
    4 C4        0.0246    -2.0732    -1.2056 C.ar   1 <0>      -0.0200
    5 F5        0.0278    -2.7408    -2.3802 F      1 <0>      -0.1700
    6 C6        0.0406    -2.7744    -0.0121 C.ar   1 <0>      -0.1000
    7 C7        0.0374    -2.0939     1.1901 C.ar   1 <0>      -0.2400
    8 C8        0.0230    -0.7055     1.2007 C.ar   1 <0>       0.2800
    9 N9        0.0202    -0.0146     2.4163 N.pl3  1 <0>      -1.0700
   10 S10       0.0341    -0.8522     3.8448 S.o2   1 <0>       2.6000
   11 O11      -1.2083    -1.5378     3.9201 O.2    1 <0>      -1.0300
   12 O12       1.2910    -1.5117     3.9110 O.2    1 <0>      -1.0100
   13 C13       0.0265     0.3358     5.1461 C.ar   1 <0>      -0.6000
   14 C14      -1.0542     0.4106     6.0026 C.ar   1 <0>       0.0000
   15 C15      -1.0603     1.3454     7.0266 C.ar   1 <0>       0.0700
   16 C16       0.0260     2.2076     7.1881 C.ar   1 <0>       0.1400
   17 C17       1.1070     2.1261     6.3235 C.ar   1 <0>      -0.1200
   18 C18       1.1072     1.1872     5.3093 C.ar   1 <0>       0.0700
   19 Cl19      2.4601     1.0846     4.2263 Cl     1 <0>      -0.0200
   20 N20      -0.2635     3.0196     8.2821 N.am   1 <0>      -0.5400
   21 C21       0.5981     4.0769     8.8167 C.3    1 <0>       0.1000
   22 C22      -1.4704     2.6677     8.7642 C.2    1 <0>       0.6800
   23 O23      -2.0204     3.1823     9.7199 O.2    1 <0>      -0.5600
   24 N24      -1.9766     1.6605     8.0280 N.am   1 <0>      -0.5400
   25 C25      -3.2702     1.0074     8.2429 C.3    1 <0>       0.0900
   26 H26       1.0042     1.8801     0.0026 H      1 <0>       0.0500
   27 H27      -0.5455     1.8639    -0.8728 H      1 <0>       0.0400
   28 H28      -0.5286     1.8543     0.9071 H      1 <0>       0.0800
   29 H29      -0.0063    -0.1435    -2.1297 H      1 <0>       0.1200
   30 H30       0.0553    -3.8543    -0.0208 H      1 <0>       0.1100
   31 H31       0.0495    -2.6414     2.1210 H      1 <0>       0.1000
   32 H32      -1.8931    -0.2575     5.8748 H      1 <0>       0.1600
   33 H33       1.9488     2.7916     6.4452 H      1 <0>       0.1500
   34 H34       0.3629     5.0207     8.3247 H      1 <0>       0.0700
   35 H35       0.4304     4.1747     9.8893 H      1 <0>       0.0900
   36 H36       1.6420     3.8221     8.6339 H      1 <0>       0.0900
   37 H37      -3.7694     1.4627     9.0982 H      1 <0>       0.0900
   38 H38      -3.8899     1.1276     7.3543 H      1 <0>       0.0800
   39 H39      -3.1139    -0.0539     8.4360 H      1 <0>       0.0800
@<TRIPOS>BOND
   1    1    2 1
   2    1   26 1
   3    1   27 1
   4    1   28 1
   5    2    8 ar
   6    2    3 ar
   7    3    4 ar
   8    3   29 1
   9    4    5 1
  10    4    6 ar
  11    6    7 ar
  12    6   30 1
  13    7    8 ar
  14    7   31 1
  15    8    9 1
  16    9   10 1
  17   10   11 2
  18   10   12 2
  19   10   13 1
  20   13   18 ar
  21   13   14 ar
  22   14   15 ar
  23   14   32 1
  24   15   24 1
  25   15   16 ar
  26   16   17 ar
  27   16   20 1
  28   17   18 ar
  29   17   33 1
  30   18   19 1
  31   20   21 1
  32   20   22 am
  33   21   34 1
  34   21   35 1
  35   21   36 1
  36   22   23 2
  37   22   24 am
  38   24   25 1
  39   25   37 1
  40   25   38 1
  41   25   39 1

@<TRIPOS>MOLECULE
ZINC000064976648
  40   42    0    0    0
SMALL
USER_CHARGES
NO_NAME
@<TRIPOS>ATOM
    1 C1       -2.3394     1.4619     1.7101 C.3    1 <0>      -0.1200
    2 C2       -1.0236     2.1724     1.8972 C.ar   1 <0>      -0.0700
    3 C3       -0.9424     3.5378     1.7068 C.ar   1 <0>      -0.1200
    4 C4        0.2664     4.1912     1.8786 C.ar   1 <0>       0.0900
    5 F5        0.3436     5.5270     1.6914 F      1 <0>      -0.1400
    6 C6        1.3957     3.4778     2.2424 C.ar   1 <0>      -0.1200
    7 C7        1.3190     2.1119     2.4343 C.ar   1 <0>      -0.1400
    8 C8        0.1070     1.4553     2.2668 C.ar   1 <0>       0.1600
    9 N9        0.0270     0.0730     2.4611 N.am   1 <0>      -1.0500
   10 S10       0.9436    -0.6529     3.6337 S.o2   1 <0>       2.6900
   11 O11       0.8112     0.1484     4.7998 O.2    1 <0>      -0.9300
   12 O12       0.6174    -2.0355     3.5996 O.2    1 <0>      -0.9200
   13 C13       2.6279    -0.5265     3.1319 C.ar   1 <0>      -0.6800
   14 C14       3.5207     0.1987     3.8963 C.ar   1 <0>       0.0100
   15 C15       4.8461     0.2982     3.5014 C.ar   1 <0>       0.0800
   16 C16       5.2733    -0.3351     2.3326 C.ar   1 <0>       0.1600
   17 C17       4.3704    -1.0610     1.5707 C.ar   1 <0>      -0.1100
   18 C18       3.0525    -1.1598     1.9751 C.ar   1 <0>       0.0600
   19 Cl19      1.9213    -2.0684     1.0218 Cl     1 <0>      -0.0300
   20 N20       6.6322    -0.0602     2.1993 N.am   1 <0>      -0.5400
   21 C21       7.4981    -0.5241     1.1125 C.3    1 <0>       0.0900
   22 C22       7.0144     0.7051     3.2390 C.2    1 <0>       0.6800
   23 O23       8.1422     1.1228     3.4245 O.2    1 <0>      -0.5300
   24 N24       5.9593     0.9385     4.0421 N.am   1 <0>      -0.5400
   25 C25       5.9782     1.7309     5.2742 C.3    1 <0>       0.0900
   26 H26      -2.8816     1.4464     2.6555 H      1 <0>       0.0800
   27 H27      -2.9318     1.9858     0.9600 H      1 <0>       0.0800
   28 H28      -2.1564     0.4395     1.3794 H      1 <0>       0.0700
   29 H29      -1.8223     4.0963     1.4234 H      1 <0>       0.1400
   30 H30       2.3374     3.9894     2.3758 H      1 <0>       0.1400
   31 H31       2.2004     1.5557     2.7177 H      1 <0>       0.1400
   32 H32      -0.5655    -0.4608     1.9089 H      1 <0>       0.4300
   33 H33       3.1871     0.6877     4.7996 H      1 <0>       0.1700
   34 H34       4.6972    -1.5519     0.6659 H      1 <0>       0.1500
   35 H35       7.4889     0.2065     0.3036 H      1 <0>       0.0800
   36 H36       8.5160    -0.6420     1.4840 H      1 <0>       0.1000
   37 H37       7.1336    -1.4819     0.7412 H      1 <0>       0.0900
   38 H38       6.9858     2.1086     5.4478 H      1 <0>       0.1000
   39 H39       5.2877     2.5688     5.1779 H      1 <0>       0.0800
   40 H40       5.6752     1.1049     6.1135 H      1 <0>       0.0800
@<TRIPOS>BOND
   1    1    2 1
   2    1   26 1
   3    1   27 1
   4    1   28 1
   5    2    8 ar
   6    2    3 ar
   7    3    4 ar
   8    3   29 1
   9    4    5 1
  10    4    6 ar
  11    6    7 ar
  12    6   30 1
  13    7    8 ar
  14    7   31 1
  15    8    9 1
  16    9   10 am
  17    9   32 1
  18   10   11 2
  19   10   12 2
  20   10   13 1
  21   13   18 ar
  22   13   14 ar
  23   14   15 ar
  24   14   33 1
  25   15   24 1
  26   15   16 ar
  27   16   17 ar
  28   16   20 1
  29   17   18 ar
  30   17   34 1
  31   18   19 1
  32   20   21 1
  33   20   22 am
  34   21   35 1
  35   21   36 1
  36   21   37 1
  37   22   23 2
  38   22   24 am
  39   24   25 1
  40   25   38 1
  41   25   39 1
  42   25   40 1
@<TRIPOS>MOLECULE
ZINC000065008958
41    43    1     0     0
SMALL
USER_CHARGES
@<TRIPOS>ATOM
1      C1     -0.0184    1.5028    0.0103 C.3      1 ZINC000065008958   -0.0800
2      C2      0.0021   -0.0041    0.0020 C.2      1 ZINC000065008958    0.0800
3      C3      0.0061   -0.7073   -1.1345 C.2      1 ZINC000065008958   -0.2700
4      S4      0.0320   -2.4210   -0.7238 S.3      1 ZINC000065008958    0.0500
5      C5      0.0350   -2.0061    0.9884 C.2      1 ZINC000065008958    0.1800
6      C6      0.0545   -2.9696    2.1009 C.2      1 ZINC000065008958    0.0200
7      C7      0.0515   -2.6623    3.4313 C.2      1 ZINC000065008958   -0.0200
8      C8      0.0747   -3.8730    4.1396 C.2      1 ZINC000065008958   -0.7000
9      S9      0.0808   -4.0511    5.8925 S.o2     1 ZINC000065008958    2.6600
10     O10     1.1195   -4.9713    6.1988 O.2      1 ZINC000065008958   -1.0300
11     O11     0.0236   -2.7368    6.4296 O.2      1 ZINC000065008958   -1.0200
12     N12    -1.3391   -4.7912    6.3150 N.pl3    1 ZINC000065008958   -1.0800
13     C13    -1.6108   -5.0624    7.6510 C.ar     1 ZINC000065008958    0.4500
14     N14    -0.7327   -4.7217    8.5814 N.ar     1 ZINC000065008958   -0.6000
15     C15    -0.9519   -4.9611    9.8606 C.ar     1 ZINC000065008958    0.1700
16     C16     0.0794   -4.5531   10.8809 C.3      1 ZINC000065008958   -0.1000
17     C17    -2.1135   -5.5799   10.2760 C.ar     1 ZINC000065008958   -0.2900
18     C18    -3.0607   -5.9534    9.3314 C.ar     1 ZINC000065008958   -0.0500
19     C19    -2.8058   -5.6844    7.9990 C.ar     1 ZINC000065008958   -0.2300
20     C20     0.0911   -4.8784    3.2365 C.2      1 ZINC000065008958    0.1800
21     C21     0.1176   -6.3503    3.5587 C.3      1 ZINC000065008958   -0.1100
22     N22     0.0730   -4.3379    1.9860 N.pl3    1 ZINC000065008958   -0.4400
23     C23     0.0821   -5.0904    0.7290 C.3      1 ZINC000065008958    0.0600
24     N24     0.0226   -0.7073    1.1115 N.2      1 ZINC000065008958   -0.4700
25     H25     1.0042    1.8801    0.0026 H        1 ZINC000065008958    0.0800
26     H26    -0.5455    1.8639   -0.8728 H        1 ZINC000065008958    0.0700
27     H27    -0.5286    1.8543    0.9071 H        1 ZINC000065008958    0.0800
28     H28    -0.0053   -0.2960   -2.1331 H        1 ZINC000065008958    0.1800
29     H29     0.0344   -1.6708    3.8591 H        1 ZINC000065008958    0.1600
30     H30    -0.1272   -3.5381   11.2204 H        1 ZINC000065008958    0.0700
31     H31     0.0401   -5.2354   11.7301 H        1 ZINC000065008958    0.0600
32     H32     1.0711   -4.5907   10.4302 H        1 ZINC000065008958    0.0700
33     H33    -2.2841   -5.7720   11.3250 H        1 ZINC000065008958    0.1100
34     H34    -3.9775   -6.4393    9.6311 H        1 ZINC000065008958    0.1100
35     H35    -3.5208   -5.9608    7.2383 H        1 ZINC000065008958    0.1200
36     H36    -0.9035   -6.7232    3.6383 H        1 ZINC000065008958    0.0900
37     H37     0.6394   -6.8864    2.7660 H        1 ZINC000065008958    0.0700
38     H38     0.6360   -6.5059    4.5048 H        1 ZINC000065008958    0.1100
39     H39    -0.9430   -5.2987    0.4228 H        1 ZINC000065008958    0.0800
40     H40     0.5795   -4.5028   -0.0426 H        1 ZINC000065008958    0.0800
41     H41     0.6167   -6.0295    0.8716 H        1 ZINC000065008958    0.1000
@<TRIPOS>BOND
1     1     2     1
2     1     25    1
3     1     26    1
4     1     27    1
5     2     24    1
6     2     3     2
7     3     4     1
8     3     28    1
9     4     5     1
10    5     6     1
11    5     24    2
12    6     22    1
13    6     7     2
14    7     8     1
15    7     29    1
16    8     9     1
17    8     20    2
18    9     10    2
19    9     11    2
20    9     12    1
21    12    13    1
22    13    19    ar
23    13    14    ar
24    14    15    ar
25    15    16    1
26    15    17    ar
27    16    30    1
28    16    31    1
29    16    32    1
30    17    18    ar
31    17    33    1
32    18    19    ar
33    18    34    1
34    19    35    1
35    20    21    1
36    20    22    1
37    21    36    1
38    21    37    1
39    21    38    1
40    22    23    1
41    23    39    1
42    23    40    1
43    23    41    1
@<TRIPOS>SUBSTRUCTURE
1   ZINC000065008958 1     RESIDUE    1   A     ZIN   1

@<TRIPOS>MOLECULE
ZINC000065008958
42    44    1     0     0
SMALL
USER_CHARGES
@<TRIPOS>ATOM
1      C1      0.4769    1.1704   -0.2756 C.3      1 ZINC000065008958   -0.0800
2      C2      0.3895   -0.3325   -0.2071 C.2      1 ZINC000065008958    0.0800
3      C3      0.3627   -1.0925   -1.3062 C.2      1 ZINC000065008958   -0.2600
4      S4      0.2588   -2.7800   -0.8087 S.3      1 ZINC000065008958    0.0600
5      C5      0.2619   -2.2778    0.8799 C.2      1 ZINC000065008958    0.1600
6      C6      0.1932   -3.1811    2.0401 C.2      1 ZINC000065008958    0.0400
7      C7      0.1892   -2.8055    3.3528 C.2      1 ZINC000065008958    0.0000
8      C8      0.1134   -3.9764    4.1218 C.2      1 ZINC000065008958   -0.7300
9      S9      0.0765   -4.0630    5.8813 S.o2     1 ZINC000065008958    2.7200
10     O10     1.0497   -5.0282    6.2561 O.2      1 ZINC000065008958   -0.9600
11     O11     0.0920   -2.7214    6.3495 O.2      1 ZINC000065008958   -0.9300
12     N12    -1.3945   -4.6910    6.3104 N.am     1 ZINC000065008958   -1.0400
13     C13    -2.5604   -3.9937    6.0162 C.ar     1 ZINC000065008958    0.3900
14     N14    -2.4970   -2.8817    5.3005 N.ar     1 ZINC000065008958   -0.5100
15     C15    -3.5798   -2.1900    4.9992 C.ar     1 ZINC000065008958    0.1800
16     C16    -3.4541   -0.9306    4.1812 C.3      1 ZINC000065008958   -0.1100
17     C17    -4.8259   -2.6053    5.4231 C.ar     1 ZINC000065008958   -0.2000
18     C18    -4.9359   -3.7670    6.1763 C.ar     1 ZINC000065008958   -0.0400
19     C19    -3.7844   -4.4737    6.4716 C.ar     1 ZINC000065008958   -0.2100
20     C20     0.0734   -5.0260    3.2714 C.2      1 ZINC000065008958    0.1700
21     C21    -0.0112   -6.4773    3.6683 C.3      1 ZINC000065008958   -0.1200
22     N22     0.1156   -4.5514    1.9950 N.pl3    1 ZINC000065008958   -0.4300
23     C23     0.0925   -5.3671    0.7783 C.3      1 ZINC000065008958    0.0600
24     N24     0.3405   -0.9768    0.9367 N.2      1 ZINC000065008958   -0.4500
25     H25     1.5239    1.4735   -0.2811 H        1 ZINC000065008958    0.0800
26     H26    -0.0077    1.5213   -1.1867 H        1 ZINC000065008958    0.0800
27     H27    -0.0222    1.6032    0.5913 H        1 ZINC000065008958    0.0800
28     H28     0.3981   -0.7340   -2.3243 H        1 ZINC000065008958    0.1800
29     H29     0.2358   -1.7944    3.7294 H        1 ZINC000065008958    0.1600
30     H30    -1.4425   -5.5454    6.7671 H        1 ZINC000065008958    0.4300
31     H31    -3.4462   -1.1850    3.1213 H        1 ZINC000065008958    0.0800
32     H32    -4.2992   -0.2750    4.3913 H        1 ZINC000065008958    0.0800
33     H33    -2.5258   -0.4208    4.4393 H        1 ZINC000065008958    0.0800
34     H34    -5.7064   -2.0326    5.1719 H        1 ZINC000065008958    0.1400
35     H35    -5.8995   -4.1128    6.5202 H        1 ZINC000065008958    0.1400
36     H36    -3.8337   -5.3814    7.0547 H        1 ZINC000065008958    0.1400
37     H37    -1.0536   -6.7960    3.6603 H        1 ZINC000065008958    0.0900
38     H38     0.5587   -7.0810    2.9620 H        1 ZINC000065008958    0.0900
39     H39     0.4000   -6.6047    4.6697 H        1 ZINC000065008958    0.1000
40     H40    -0.9395   -5.5181    0.4617 H        1 ZINC000065008958    0.0900
41     H41     0.6439   -4.8570   -0.0116 H        1 ZINC000065008958    0.0900
42     H42     0.5559   -6.3329    0.9795 H        1 ZINC000065008958    0.1000
@<TRIPOS>BOND
1     1     2     1
2     1     25    1
3     1     26    1
4     1     27    1
5     2     24    1
6     2     3     2
7     3     4     1
8     3     28    1
9     4     5     1
10    5     6     1
11    5     24    2
12    6     22    1
13    6     7     2
14    7     8     1
15    7     29    1
16    8     9     1
17    8     20    2
18    9     10    2
19    9     11    2
20    9     12    am
21    12    13    1
22    12    30    1
23    13    19    ar
24    13    14    ar
25    14    15    ar
26    15    16    1
27    15    17    ar
28    16    31    1
29    16    32    1
30    16    33    1
31    17    18    ar
32    17    34    1
33    18    19    ar
34    18    35    1
35    19    36    1
36    20    21    1
37    20    22    1
38    21    37    1
39    21    38    1
40    21    39    1
41    22    23    1
42    23    40    1
43    23    41    1
44    23    42    1
@<TRIPOS>SUBSTRUCTURE
1   ZINC000065008958 1     RESIDUE    1   A     ZIN   1
@<TRIPOS>MOLECULE
ZINC000065183796
  37   39    0    0    0
SMALL
USER_CHARGES
NO_NAME
@<TRIPOS>ATOM
    1 C1       -0.0187     1.5258     0.0104 C.3    1 <0>      -0.1500
    2 C2        0.0021    -0.0041     0.0020 C.3    1 <0>      -0.0300
    3 C3       -1.4117    -0.5257     0.0127 C.2    1 <0>       0.1000
    4 N4       -2.4950     0.1701     0.0216 N.2    1 <0>      -0.2200
    5 N5       -3.7220    -0.4814     0.0308 N.pl3  1 <0>      -0.2700
    6 C6       -3.6516    -1.8405     0.0294 C.2    1 <0>       0.1500
    7 N7       -4.8633    -2.3436     0.0378 N.2    1 <0>      -0.4400
    8 C8       -5.7512    -1.3399     0.0448 C.2    1 <0>       0.1400
    9 C9       -7.2507    -1.4892     0.0556 C.3    1 <0>      -0.0800
   10 C10      -5.0762    -0.1770     0.0411 C.2    1 <0>      -0.4800
   11 S11      -5.7816     1.4376     0.0476 S.o2   1 <0>       2.6300
   12 O12      -7.0837     1.3044     0.6006 O.2    1 <0>      -1.0100
   13 O13      -4.7934     2.3051     0.5864 O.2    1 <0>      -1.0100
   14 N14      -5.9883     1.8886    -1.5324 N.pl3  1 <0>      -1.0800
   15 C15      -6.5357     3.1370    -1.8364 C.ar   1 <0>       0.3100
   16 C16      -6.9018     4.0038    -0.8145 C.ar   1 <0>      -0.2700
   17 C17      -7.4430     5.2381    -1.1172 C.ar   1 <0>      -0.0400
   18 C18      -7.6210     5.6125    -2.4359 C.ar   1 <0>      -0.2600
   19 C19      -7.2578     4.7511    -3.4583 C.ar   1 <0>       0.1300
   20 F20      -7.4334     5.1196    -4.7461 F      1 <0>      -0.1500
   21 C21      -6.7097     3.5165    -3.1611 C.ar   1 <0>      -0.1900
   22 C22      -6.3139     2.5792    -4.2728 C.3    1 <0>      -0.0800
   23 S23      -1.9237    -2.2226     0.0079 S.3    1 <0>       0.1200
   24 H24       1.0039     1.9031     0.0027 H      1 <0>       0.0700
   25 H25      -0.5459     1.8868    -0.8726 H      1 <0>       0.0700
   26 H26      -0.5289     1.8773     0.9072 H      1 <0>       0.0700
   27 H27       0.5123    -0.3556    -0.8948 H      1 <0>       0.1100
   28 H28       0.5293    -0.3651     0.8851 H      1 <0>       0.1100
   29 H29      -7.6048    -1.5262     1.0859 H      1 <0>       0.0900
   30 H30      -7.7041    -0.6390    -0.4540 H      1 <0>       0.1000
   31 H31      -7.5279    -2.4103    -0.4572 H      1 <0>       0.0800
   32 H32      -6.7636     3.7126     0.2163 H      1 <0>       0.1000
   33 H33      -7.7278     5.9116    -0.3224 H      1 <0>       0.1100
   34 H34      -8.0444     6.5782    -2.6696 H      1 <0>       0.1100
   35 H35      -5.2780     2.7673    -4.5551 H      1 <0>       0.0500
   36 H36      -6.4165     1.5486    -3.9329 H      1 <0>       0.0800
   37 H37      -6.9609     2.7438    -5.1344 H      1 <0>       0.0400
@<TRIPOS>BOND
   1    1    2 1
   2    1   24 1
   3    1   25 1
   4    1   26 1
   5    2    3 1
   6    2   27 1
   7    2   28 1
   8    3   23 1
   9    3    4 2
  10    4    5 1
  11    5   10 1
  12    5    6 1
  13    6    7 2
  14    6   23 1
  15    7    8 1
  16    8    9 1
  17    8   10 2
  18    9   29 1
  19    9   30 1
  20    9   31 1
  21   10   11 1
  22   11   12 2
  23   11   13 2
  24   11   14 1
  25   14   15 1
  26   15   21 ar
  27   15   16 ar
  28   16   17 ar
  29   16   32 1
  30   17   18 ar
  31   17   33 1
  32   18   19 ar
  33   18   34 1
  34   19   20 1
  35   19   21 ar
  36   21   22 1
  37   22   35 1
  38   22   36 1
  39   22   37 1

@<TRIPOS>MOLECULE
ZINC000065183796
  38   40    0    0    0
SMALL
USER_CHARGES
NO_NAME
@<TRIPOS>ATOM
    1 C1      -10.0504    -2.0337     1.0573 C.3    1 <0>      -0.1500
    2 C2       -9.1220    -3.2493     1.0909 C.3    1 <0>      -0.0400
    3 C3       -7.7241    -2.8241     0.7221 C.2    1 <0>       0.1200
    4 N4       -7.3281    -1.6356     0.4245 N.2    1 <0>      -0.2300
    5 N5       -5.9924    -1.4231     0.1072 N.pl3  1 <0>      -0.2700
    6 C6       -5.2083    -2.5349     0.1446 C.2    1 <0>       0.1700
    7 N7       -3.9756    -2.2144    -0.1700 N.2    1 <0>      -0.4400
    8 C8       -3.9180    -0.8991    -0.4194 C.2    1 <0>       0.1700
    9 C9       -2.6841    -0.1298    -0.8153 C.3    1 <0>      -0.1100
   10 C10      -5.1488    -0.3826    -0.2567 C.2    1 <0>      -0.5600
   11 S11      -5.6068     1.3058    -0.4664 S.o2   1 <0>       2.7200
   12 O12      -6.8677     1.4616     0.1702 O.2    1 <0>      -0.9200
   13 O13      -4.4632     2.0771    -0.1250 O.2    1 <0>      -0.9300
   14 N14      -5.8669     1.5459    -2.0841 N.am   1 <0>      -1.0500
   15 C15      -6.8490     0.8095    -2.7504 C.ar   1 <0>       0.1800
   16 C16      -8.0251     0.4662    -2.0959 C.ar   1 <0>      -0.1700
   17 C17      -8.9953    -0.2622    -2.7566 C.ar   1 <0>      -0.0700
   18 C18      -8.7975    -0.6503    -4.0684 C.ar   1 <0>      -0.1600
   19 C19      -7.6258    -0.3105    -4.7249 C.ar   1 <0>       0.1200
   20 F20      -7.4353    -0.6917    -6.0070 F      1 <0>      -0.1300
   21 C21      -6.6538     0.4239    -4.0703 C.ar   1 <0>      -0.1400
   22 C22      -5.3793     0.7942    -4.7841 C.3    1 <0>      -0.1200
   23 S23      -6.2870    -3.8562     0.6168 S.3    1 <0>       0.1600
   24 H24     -11.0615    -2.3413     1.3241 H      1 <0>       0.0800
   25 H25      -9.6979    -1.2875     1.7694 H      1 <0>       0.0700
   26 H26     -10.0533    -1.6063     0.0546 H      1 <0>       0.0700
   27 H27      -9.1191    -3.6767     2.0936 H      1 <0>       0.1100
   28 H28      -9.4745    -3.9955     0.3789 H      1 <0>       0.1100
   29 H29      -2.6393    -0.0489    -1.9014 H      1 <0>       0.0900
   30 H30      -2.7220     0.8679    -0.3779 H      1 <0>       0.1100
   31 H31      -1.7986    -0.6519    -0.4530 H      1 <0>       0.1000
   32 H32      -5.3372     2.1980    -2.5690 H      1 <0>       0.4300
   33 H33      -8.1809     0.7684    -1.0708 H      1 <0>       0.1700
   34 H34      -9.9094    -0.5291    -2.2472 H      1 <0>       0.1400
   35 H35      -9.5577    -1.2197    -4.5825 H      1 <0>       0.1400
   36 H36      -5.5086     1.7539    -5.2844 H      1 <0>       0.0800
   37 H37      -4.5664     0.8678    -4.0616 H      1 <0>       0.0700
   38 H38      -5.1408     0.0288    -5.5225 H      1 <0>       0.0800
@<TRIPOS>BOND
   1    1    2 1
   2    1   24 1
   3    1   25 1
   4    1   26 1
   5    2    3 1
   6    2   27 1
   7    2   28 1
   8    3   23 1
   9    3    4 2
  10    4    5 1
  11    5   10 1
  12    5    6 1
  13    6    7 2
  14    6   23 1
  15    7    8 1
  16    8    9 1
  17    8   10 2
  18    9   29 1
  19    9   30 1
  20    9   31 1
  21   10   11 1
  22   11   12 2
  23   11   13 2
  24   11   14 am
  25   14   15 1
  26   14   32 1
  27   15   21 ar
  28   15   16 ar
  29   16   17 ar
  30   16   33 1
  31   17   18 ar
  32   17   34 1
  33   18   19 ar
  34   18   35 1
  35   19   20 1
  36   19   21 ar
  37   21   22 1
  38   22   36 1
  39   22   37 1
  40   22   38 1
@<TRIPOS>MOLECULE
ZINC000065183878
  40   42    0    0    0
SMALL
USER_CHARGES
NO_NAME
@<TRIPOS>ATOM
    1 C1       -0.0187     1.5258     0.0104 C.3    1 <0>      -0.1400
    2 C2        0.0021    -0.0041     0.0020 C.3    1 <0>      -0.0500
    3 C3        0.7074    -0.4901    -1.2379 C.2    1 <0>       0.1400
    4 C4        0.1272    -0.7487    -2.4230 C.2    1 <0>      -0.4700
    5 S5       -1.5849    -0.5808    -2.8040 S.o2   1 <0>       2.6200
    6 O6       -2.1121     0.3582    -1.8769 O.2    1 <0>      -1.0100
    7 O7       -1.6679    -0.4127    -4.2126 O.2    1 <0>      -1.0100
    8 N8       -2.3075    -2.0312    -2.4627 N.pl3  1 <0>      -1.0800
    9 C9       -3.6792    -2.1939    -2.6699 C.ar   1 <0>       0.2800
   10 C10      -4.4376    -1.1420    -3.1675 C.ar   1 <0>      -0.2700
   11 C11      -5.7937    -1.3065    -3.3716 C.ar   1 <0>      -0.0700
   12 C12      -6.3964    -2.5165    -3.0812 C.ar   1 <0>      -0.2200
   13 C13      -5.6443    -3.5658    -2.5851 C.ar   1 <0>      -0.0500
   14 C14      -6.3056    -4.8828    -2.2700 C.3    1 <0>      -0.1100
   15 C15      -4.2871    -3.4100    -2.3841 C.ar   1 <0>      -0.1500
   16 C16      -3.4684    -4.5540    -1.8435 C.3    1 <0>      -0.0800
   17 N17       1.1240    -1.1716    -3.2914 N.pl3  1 <0>      -0.2700
   18 N18       1.2674    -1.5885    -4.6088 N.2    1 <0>      -0.2300
   19 C19       2.4354    -1.9104    -5.0447 C.2    1 <0>       0.1000
   20 C20       2.7884    -2.3821    -6.4317 C.3    1 <0>      -0.0600
   21 S21       3.5431    -1.6847    -3.6796 S.3    1 <0>       0.1200
   22 C22       2.2764    -1.1448    -2.5678 C.2    1 <0>       0.1500
   23 N23       2.0206    -0.7326    -1.3488 N.2    1 <0>      -0.4400
   24 H24       1.0039     1.9031     0.0027 H      1 <0>       0.0500
   25 H25      -0.5459     1.8868    -0.8726 H      1 <0>       0.0700
   26 H26      -0.5289     1.8773     0.9072 H      1 <0>       0.0600
   27 H27       0.5293    -0.3651     0.8851 H      1 <0>       0.0800
   28 H28      -1.0205    -0.3814     0.0098 H      1 <0>       0.1000
   29 H29      -3.9675    -0.1965    -3.3942 H      1 <0>       0.0900
   30 H30      -6.3840    -0.4889    -3.7582 H      1 <0>       0.1000
   31 H31      -7.4570    -2.6424    -3.2417 H      1 <0>       0.1000
   32 H32      -6.2814    -5.5219    -3.1527 H      1 <0>       0.0600
   33 H33      -5.7730    -5.3706    -1.4536 H      1 <0>       0.0600
   34 H34      -7.3406    -4.7085    -1.9759 H      1 <0>       0.0500
   35 H35      -3.0918    -5.1544    -2.6716 H      1 <0>       0.0400
   36 H36      -2.6297    -4.1608    -1.2689 H      1 <0>       0.0700
   37 H37      -4.0915    -5.1740    -1.1991 H      1 <0>       0.0400
   38 H38       3.0334    -1.5230    -7.0562 H      1 <0>       0.1000
   39 H39       3.6477    -3.0507    -6.3804 H      1 <0>       0.1000
   40 H40       1.9396    -2.9136    -6.8618 H      1 <0>       0.1100
@<TRIPOS>BOND
   1    1    2 1
   2    1   24 1
   3    1   25 1
   4    1   26 1
   5    2    3 1
   6    2   27 1
   7    2   28 1
   8    3   23 1
   9    3    4 2
  10    4    5 1
  11    4   17 1
  12    5    6 2
  13    5    7 2
  14    5    8 1
  15    8    9 1
  16    9   15 ar
  17    9   10 ar
  18   10   11 ar
  19   10   29 1
  20   11   12 ar
  21   11   30 1
  22   12   13 ar
  23   12   31 1
  24   13   14 1
  25   13   15 ar
  26   14   32 1
  27   14   33 1
  28   14   34 1
  29   15   16 1
  30   16   35 1
  31   16   36 1
  32   16   37 1
  33   17   22 1
  34   17   18 1
  35   18   19 2
  36   19   20 1
  37   19   21 1
  38   20   38 1
  39   20   39 1
  40   20   40 1
  41   21   22 1
  42   22   23 2

@<TRIPOS>MOLECULE
ZINC000065183878
  41   43    0    0    0
SMALL
USER_CHARGES
NO_NAME
@<TRIPOS>ATOM
    1 C1       -3.5616    -3.6020     1.7000 C.3    1 <0>      -0.1500
    2 C2       -4.0728    -2.2499     1.1987 C.3    1 <0>      -0.0800
    3 C3       -2.9787    -1.5516     0.4330 C.2    1 <0>       0.1800
    4 C4       -1.9976    -0.8038     0.9682 C.2    1 <0>      -0.5600
    5 S5       -1.7609    -0.4661     2.6812 S.o2   1 <0>       2.7200
    6 O6       -0.9651     0.7090     2.7524 O.2    1 <0>      -0.9300
    7 O7       -3.0388    -0.5775     3.2925 O.2    1 <0>      -0.9300
    8 N8       -0.8379    -1.6940     3.2999 N.am   1 <0>      -1.0500
    9 C9        0.4399    -1.9328     2.7890 C.ar   1 <0>       0.1500
   10 C10       1.2341    -0.8708     2.3763 C.ar   1 <0>      -0.1600
   11 C11       2.4975    -1.1104     1.8720 C.ar   1 <0>      -0.0900
   12 C12       2.9717    -2.4058     1.7778 C.ar   1 <0>      -0.1300
   13 C13       2.1833    -3.4657     2.1875 C.ar   1 <0>      -0.0700
   14 C14       2.7045    -4.8758     2.0830 C.3    1 <0>      -0.1200
   15 C15       0.9216    -3.2328     2.6980 C.ar   1 <0>      -0.1000
   16 C16       0.0632    -4.3883     3.1441 C.3    1 <0>      -0.1200
   17 N17      -1.2053    -0.3470    -0.0759 N.pl3  1 <0>      -0.2700
   18 N18      -0.0740     0.4338    -0.2773 N.2    1 <0>      -0.2400
   19 C19       0.3581     0.6203    -1.4758 C.2    1 <0>       0.1200
   20 C20       1.5598     1.4290    -1.8918 C.3    1 <0>      -0.0700
   21 S21      -0.7492    -0.2692    -2.5360 S.3    1 <0>       0.1600
   22 C22      -1.7630    -0.8547    -1.2088 C.2    1 <0>       0.1700
   23 N23      -2.8143    -1.5749    -0.8967 N.2    1 <0>      -0.4400
   24 H24      -4.3530    -4.1070     2.2538 H      1 <0>       0.0800
   25 H25      -3.2643    -4.2159     0.8499 H      1 <0>       0.0600
   26 H26      -2.7032    -3.4462     2.3535 H      1 <0>       0.0500
   27 H27      -4.9312    -2.4056     0.5452 H      1 <0>       0.1000
   28 H28      -4.3701    -1.6359     2.0488 H      1 <0>       0.1200
   29 H29      -1.1847    -2.2474     4.0171 H      1 <0>       0.4300
   30 H30       0.8641     0.1413     2.4492 H      1 <0>       0.1600
   31 H31       3.1154    -0.2851     1.5505 H      1 <0>       0.1300
   32 H32       3.9600    -2.5904     1.3831 H      1 <0>       0.1200
   33 H33       3.2219    -5.1412     3.0049 H      1 <0>       0.0700
   34 H34       1.8712    -5.5603     1.9242 H      1 <0>       0.0700
   35 H35       3.3972    -4.9460     1.2444 H      1 <0>       0.0700
   36 H36       0.2520    -4.5957     4.1974 H      1 <0>       0.0800
   37 H37      -0.9878    -4.1345     3.0065 H      1 <0>       0.0700
   38 H38       0.3046    -5.2704     2.5511 H      1 <0>       0.0800
   39 H39       2.4411     0.7877    -1.9089 H      1 <0>       0.1100
   40 H40       1.3925     1.8432    -2.8860 H      1 <0>       0.1100
   41 H41       1.7150     2.2409    -1.1813 H      1 <0>       0.1100
@<TRIPOS>BOND
   1    1    2 1
   2    1   24 1
   3    1   25 1
   4    1   26 1
   5    2    3 1
   6    2   27 1
   7    2   28 1
   8    3   23 1
   9    3    4 2
  10    4    5 1
  11    4   17 1
  12    5    6 2
  13    5    7 2
  14    5    8 am
  15    8    9 1
  16    8   29 1
  17    9   15 ar
  18    9   10 ar
  19   10   11 ar
  20   10   30 1
  21   11   12 ar
  22   11   31 1
  23   12   13 ar
  24   12   32 1
  25   13   14 1
  26   13   15 ar
  27   14   33 1
  28   14   34 1
  29   14   35 1
  30   15   16 1
  31   16   36 1
  32   16   37 1
  33   16   38 1
  34   17   22 1
  35   17   18 1
  36   18   19 2
  37   19   20 1
  38   19   21 1
  39   20   39 1
  40   20   40 1
  41   20   41 1
  42   21   22 1
  43   22   23 2
@<TRIPOS>MOLECULE
ZINC000065183893
  34   36    0    0    0
SMALL
USER_CHARGES
NO_NAME
@<TRIPOS>ATOM
    1 C1       -0.0187     1.5258     0.0104 C.3    1 <0>      -0.1400
    2 C2        0.0021    -0.0041     0.0020 C.3    1 <0>      -0.0500
    3 C3        0.7074    -0.4901    -1.2379 C.2    1 <0>       0.1400
    4 C4        0.1272    -0.7487    -2.4230 C.2    1 <0>      -0.4800
    5 S5       -1.5849    -0.5808    -2.8040 S.o2   1 <0>       2.6300
    6 O6       -2.1121     0.3582    -1.8769 O.2    1 <0>      -1.0000
    7 O7       -1.6679    -0.4127    -4.2126 O.2    1 <0>      -1.0100
    8 N8       -2.3075    -2.0312    -2.4627 N.pl3  1 <0>      -1.0800
    9 C9       -3.6806    -2.1941    -2.6701 C.ar   1 <0>       0.3000
   10 C10      -4.4381    -1.1420    -3.1675 C.ar   1 <0>      -0.2500
   11 C11      -5.7950    -1.3039    -3.3721 C.ar   1 <0>      -0.0700
   12 C12      -6.4005    -2.5137    -3.0813 C.ar   1 <0>      -0.0500
   13 F13      -7.7274    -2.6695    -3.2822 F      1 <0>      -0.1500
   14 C14      -5.6468    -3.5666    -2.5843 C.ar   1 <0>       0.1100
   15 F15      -6.2396    -4.7472    -2.3014 F      1 <0>      -0.1400
   16 C16      -4.2875    -3.4101    -2.3842 C.ar   1 <0>      -0.1900
   17 N17       1.1240    -1.1716    -3.2914 N.pl3  1 <0>      -0.2700
   18 N18       1.2674    -1.5885    -4.6088 N.2    1 <0>      -0.2300
   19 C19       2.4354    -1.9104    -5.0447 C.2    1 <0>       0.1100
   20 C20       2.7884    -2.3821    -6.4317 C.3    1 <0>      -0.0600
   21 S21       3.5431    -1.6847    -3.6796 S.3    1 <0>       0.1200
   22 C22       2.2764    -1.1448    -2.5678 C.2    1 <0>       0.1500
   23 N23       2.0206    -0.7326    -1.3488 N.2    1 <0>      -0.4400
   24 H24       1.0039     1.9031     0.0027 H      1 <0>       0.0500
   25 H25      -0.5459     1.8868    -0.8726 H      1 <0>       0.0700
   26 H26      -0.5289     1.8773     0.9072 H      1 <0>       0.0700
   27 H27       0.5293    -0.3651     0.8851 H      1 <0>       0.0900
   28 H28      -1.0205    -0.3814     0.0098 H      1 <0>       0.1000
   29 H29      -3.9667    -0.1970    -3.3942 H      1 <0>       0.1100
   30 H30      -6.3837    -0.4853    -3.7590 H      1 <0>       0.1300
   31 H31      -3.7001    -4.2296    -1.9972 H      1 <0>       0.1400
   32 H32       3.0334    -1.5230    -7.0562 H      1 <0>       0.1000
   33 H33       3.6477    -3.0507    -6.3804 H      1 <0>       0.1000
   34 H34       1.9396    -2.9136    -6.8618 H      1 <0>       0.1100
@<TRIPOS>BOND
   1    1    2 1
   2    1   24 1
   3    1   25 1
   4    1   26 1
   5    2    3 1
   6    2   27 1
   7    2   28 1
   8    3   23 1
   9    3    4 2
  10    4    5 1
  11    4   17 1
  12    5    6 2
  13    5    7 2
  14    5    8 1
  15    8    9 1
  16    9   16 ar
  17    9   10 ar
  18   10   11 ar
  19   10   29 1
  20   11   12 ar
  21   11   30 1
  22   12   13 1
  23   12   14 ar
  24   14   15 1
  25   14   16 ar
  26   16   31 1
  27   17   22 1
  28   17   18 1
  29   18   19 2
  30   19   20 1
  31   19   21 1
  32   20   32 1
  33   20   33 1
  34   20   34 1
  35   21   22 1
  36   22   23 2

@<TRIPOS>MOLECULE
ZINC000065183893
  35   37    0    0    0
SMALL
USER_CHARGES
NO_NAME
@<TRIPOS>ATOM
    1 C1       -1.2673    -0.1316     1.6680 C.3    1 <0>      -0.1500
    2 C2       -1.4465    -1.5425     1.1040 C.3    1 <0>      -0.0600
    3 C3       -0.2305    -1.9195     0.2977 C.2    1 <0>       0.1700
    4 C4       -0.0573    -1.6950    -1.0167 C.2    1 <0>      -0.5600
    5 S5       -1.2045    -0.9112    -2.1003 S.o2   1 <0>       2.7100
    6 O6       -1.9400     0.0105    -1.3074 O.2    1 <0>      -0.9200
    7 O7       -0.4694    -0.5295    -3.2550 O.2    1 <0>      -0.9200
    8 N8       -2.2821    -2.0680    -2.5933 N.am   1 <0>      -1.0600
    9 C9       -1.8397    -3.1604    -3.3454 C.ar   1 <0>       0.1400
   10 C10      -1.5182    -2.9966    -4.6863 C.ar   1 <0>      -0.0800
   11 C11      -1.0810    -4.0769    -5.4288 C.ar   1 <0>      -0.1100
   12 C12      -0.9636    -5.3225    -4.8377 C.ar   1 <0>       0.0800
   13 F13      -0.5360    -6.3772    -5.5658 F      1 <0>      -0.1200
   14 C14      -1.2839    -5.4896    -3.4986 C.ar   1 <0>       0.0700
   15 F15      -1.1682    -6.7064    -2.9231 F      1 <0>      -0.1200
   16 C16      -1.7158    -4.4094    -2.7509 C.ar   1 <0>      -0.1200
   17 N17       1.1909    -2.1934    -1.3635 N.pl3  1 <0>      -0.2700
   18 N18       2.0051    -2.3114    -2.4829 N.2    1 <0>      -0.2400
   19 C19       3.1581    -2.8728    -2.3676 C.2    1 <0>       0.1200
   20 C20       4.1747    -3.0908    -3.4585 C.3    1 <0>      -0.0700
   21 S21       3.3051    -3.3361    -0.6631 S.3    1 <0>       0.1600
   22 C22       1.7145    -2.7025    -0.2151 C.2    1 <0>       0.1700
   23 N23       0.8649    -2.5302     0.7697 N.2    1 <0>      -0.4300
   24 H24      -0.3849    -0.1053     2.3074 H      1 <0>       0.0600
   25 H25      -1.1424     0.5746     0.8471 H      1 <0>       0.0700
   26 H26      -2.1469     0.1411     2.2512 H      1 <0>       0.0700
   27 H27      -1.5714    -2.2487     1.9249 H      1 <0>       0.1000
   28 H28      -2.3289    -1.5688     0.4646 H      1 <0>       0.0900
   29 H29      -3.2203    -1.9877    -2.3602 H      1 <0>       0.4300
   30 H30      -1.6101    -2.0251    -5.1489 H      1 <0>       0.1600
   31 H31      -0.8311    -3.9489    -6.4716 H      1 <0>       0.1600
   32 H32      -1.9654    -4.5389    -1.7081 H      1 <0>       0.1500
   33 H33       4.8428    -2.2311    -3.5096 H      1 <0>       0.1100
   34 H34       4.7536    -3.9885    -3.2414 H      1 <0>       0.1100
   35 H35       3.6629    -3.2106    -4.4134 H      1 <0>       0.1100
@<TRIPOS>BOND
   1    1    2 1
   2    1   24 1
   3    1   25 1
   4    1   26 1
   5    2    3 1
   6    2   27 1
   7    2   28 1
   8    3   23 1
   9    3    4 2
  10    4    5 1
  11    4   17 1
  12    5    6 2
  13    5    7 2
  14    5    8 am
  15    8    9 1
  16    8   29 1
  17    9   16 ar
  18    9   10 ar
  19   10   11 ar
  20   10   30 1
  21   11   12 ar
  22   11   31 1
  23   12   13 1
  24   12   14 ar
  25   14   15 1
  26   14   16 ar
  27   16   32 1
  28   17   22 1
  29   17   18 1
  30   18   19 2
  31   19   20 1
  32   19   21 1
  33   20   33 1
  34   20   34 1
  35   20   35 1
  36   21   22 1
  37   22   23 2
@<TRIPOS>MOLECULE
ZINC000065183923
  35   37    0    0    0
SMALL
USER_CHARGES
NO_NAME
@<TRIPOS>ATOM
    1 C1        0.2296     2.0974    -0.9364 C.3    1 <0>      -0.1500
    2 C2        0.4720     0.6562    -0.4837 C.3    1 <0>      -0.0800
    3 C3        1.0001    -0.1518    -1.6410 C.2    1 <0>       0.1800
    4 C4        0.2553    -0.7592    -2.5815 C.2    1 <0>      -0.5600
    5 S5       -1.5038    -0.7535    -2.6824 S.o2   1 <0>       2.7200
    6 O6       -1.8598    -1.8265    -3.5433 O.2    1 <0>      -0.9300
    7 O7       -1.9818    -0.6350    -1.3495 O.2    1 <0>      -0.9300
    8 N8       -1.9454     0.6386    -3.4630 N.am   1 <0>      -1.0500
    9 C9       -1.4960     0.8832    -4.7635 C.ar   1 <0>       0.1600
   10 C10      -1.3541    -0.1676    -5.6598 C.ar   1 <0>      -0.1500
   11 C11      -0.9095     0.0774    -6.9448 C.ar   1 <0>      -0.0800
   12 C12      -0.6054     1.3671    -7.3390 C.ar   1 <0>      -0.1200
   13 C13      -0.7454     2.4169    -6.4493 C.ar   1 <0>      -0.0900
   14 C14      -1.1954     2.1800    -5.1645 C.ar   1 <0>      -0.0500
   15 Cl15     -1.3709     3.4978    -4.0482 Cl     1 <0>      -0.0600
   16 N16       1.1260    -1.3912    -3.4584 N.pl3  1 <0>      -0.2700
   17 N17       1.0835    -2.1700    -4.6080 N.2    1 <0>      -0.2400
   18 C18       2.1856    -2.5750    -5.1364 C.2    1 <0>       0.1200
   19 C19       2.3420    -3.4211    -6.3735 C.3    1 <0>      -0.0700
   20 S20       3.4811    -1.9331    -4.1112 S.3    1 <0>       0.1600
   21 C21       2.3757    -1.1252    -2.9897 C.2    1 <0>       0.1700
   22 N22       2.2921    -0.3825    -1.9114 N.2    1 <0>      -0.4300
   23 H23       1.1668     2.5314    -1.2848 H      1 <0>       0.0600
   24 H24      -0.4984     2.1059    -1.7477 H      1 <0>       0.0500
   25 H25      -0.1524     2.6818    -0.0994 H      1 <0>       0.0800
   26 H26       1.2000     0.6478     0.3275 H      1 <0>       0.1000
   27 H27      -0.4653     0.2223    -0.1353 H      1 <0>       0.1200
   28 H28      -2.5161     1.2843    -3.0176 H      1 <0>       0.4300
   29 H29      -1.5907    -1.1757    -5.3527 H      1 <0>       0.1700
   30 H30      -0.7990    -0.7398    -7.6422 H      1 <0>       0.1400
   31 H31      -0.2575     1.5554    -8.3439 H      1 <0>       0.1400
   32 H32      -0.5070     3.4232    -6.7604 H      1 <0>       0.1400
   33 H33       2.4155    -2.7753    -7.2485 H      1 <0>       0.1100
   34 H34       3.2465    -4.0236    -6.2897 H      1 <0>       0.1100
   35 H35       1.4772    -4.0764    -6.4773 H      1 <0>       0.1100
@<TRIPOS>BOND
   1    1    2 1
   2    1   23 1
   3    1   24 1
   4    1   25 1
   5    2    3 1
   6    2   26 1
   7    2   27 1
   8    3   22 1
   9    3    4 2
  10    4    5 1
  11    4   16 1
  12    5    6 2
  13    5    7 2
  14    5    8 am
  15    8    9 1
  16    8   28 1
  17    9   14 ar
  18    9   10 ar
  19   10   11 ar
  20   10   29 1
  21   11   12 ar
  22   11   30 1
  23   12   13 ar
  24   12   31 1
  25   13   14 ar
  26   13   32 1
  27   14   15 1
  28   16   21 1
  29   16   17 1
  30   17   18 2
  31   18   19 1
  32   18   20 1
  33   19   33 1
  34   19   34 1
  35   19   35 1
  36   20   21 1
  37   21   22 2

@<TRIPOS>MOLECULE
ZINC000065183923
  34   36    0    0    0
SMALL
USER_CHARGES
NO_NAME
@<TRIPOS>ATOM
    1 C1       -0.0187     1.5258     0.0104 C.3    1 <0>      -0.1400
    2 C2        0.0021    -0.0041     0.0020 C.3    1 <0>      -0.0500
    3 C3       -1.4117    -0.5257     0.0127 C.2    1 <0>       0.1400
    4 C4       -2.1414    -0.7989     1.1087 C.2    1 <0>      -0.4800
    5 S5       -1.6199    -0.6120     2.7813 S.o2   1 <0>       2.6300
    6 O6       -0.5773     0.3534     2.7711 O.2    1 <0>      -1.0100
    7 O7       -2.8022    -0.4709     3.5569 O.2    1 <0>      -1.0100
    8 N8       -0.9269    -2.0438     3.2416 N.pl3  1 <0>      -1.0700
    9 C9       -0.4164    -2.1893     4.5344 C.ar   1 <0>       0.2900
   10 C10      -0.4946    -1.1364     5.4359 C.ar   1 <0>      -0.2600
   11 C11       0.0110    -1.2834     6.7133 C.ar   1 <0>      -0.0600
   12 C12       0.5949    -2.4771     7.0946 C.ar   1 <0>      -0.2200
   13 C13       0.6748    -3.5286     6.1996 C.ar   1 <0>      -0.0700
   14 C14       0.1657    -3.3907     4.9225 C.ar   1 <0>      -0.0900
   15 Cl15      0.2662    -4.7107     3.7995 Cl     1 <0>      -0.0900
   16 N16      -3.3808    -1.2545     0.6810 N.pl3  1 <0>      -0.2700
   17 N17      -4.5826    -1.6999     1.2169 N.2    1 <0>      -0.2300
   18 C18      -5.5356    -2.0486     0.4244 C.2    1 <0>       0.1100
   19 C19      -6.9011    -2.5533     0.8138 C.3    1 <0>      -0.0600
   20 S20      -4.9129    -1.8129    -1.2182 S.3    1 <0>       0.1200
   21 C21      -3.3308    -1.2312    -0.6788 C.2    1 <0>       0.1500
   22 N22      -2.1579    -0.7908    -1.0683 N.2    1 <0>      -0.4400
   23 H23       1.0039     1.9031     0.0027 H      1 <0>       0.0600
   24 H24      -0.5459     1.8868    -0.8726 H      1 <0>       0.0500
   25 H25      -0.5289     1.8773     0.9072 H      1 <0>       0.0700
   26 H26       0.5123    -0.3556    -0.8948 H      1 <0>       0.0800
   27 H27       0.5293    -0.3651     0.8851 H      1 <0>       0.1000
   28 H28      -0.9499    -0.2032     5.1389 H      1 <0>       0.1000
   29 H29      -0.0496    -0.4644     7.4148 H      1 <0>       0.1100
   30 H30       0.9899    -2.5887     8.0935 H      1 <0>       0.1100
   31 H31       1.1316    -4.4598     6.5007 H      1 <0>       0.1100
   32 H32      -7.5858    -1.7108     0.9109 H      1 <0>       0.1000
   33 H33      -7.2693    -3.2341     0.0463 H      1 <0>       0.1000
   34 H34      -6.8359    -3.0801     1.7658 H      1 <0>       0.1100
@<TRIPOS>BOND
   1    1    2 1
   2    1   23 1
   3    1   24 1
   4    1   25 1
   5    2    3 1
   6    2   26 1
   7    2   27 1
   8    3   22 1
   9    3    4 2
  10    4    5 1
  11    4   16 1
  12    5    6 2
  13    5    7 2
  14    5    8 1
  15    8    9 1
  16    9   14 ar
  17    9   10 ar
  18   10   11 ar
  19   10   28 1
  20   11   12 ar
  21   11   29 1
  22   12   13 ar
  23   12   30 1
  24   13   14 ar
  25   13   31 1
  26   14   15 1
  27   16   21 1
  28   16   17 1
  29   17   18 2
  30   18   19 1
  31   18   20 1
  32   19   32 1
  33   19   33 1
  34   19   34 1
  35   20   21 1
  36   21   22 2
@<TRIPOS>MOLECULE
ZINC000065464659
  43   46    0    0    0
SMALL
USER_CHARGES
NO_NAME
@<TRIPOS>ATOM
    1 O1        0.0021    -0.0041     0.0020 O.2    1 <0>      -0.6000
    2 C2       -0.0160     1.3292     0.0093 C.2    1 <0>       0.3400
    3 C3       -1.2489     2.0132     0.0307 C.2    1 <0>      -0.1700
    4 C4       -1.2836     3.3686     0.0384 C.2    1 <0>      -0.0500
    5 C5       -0.0809     4.1029     0.0251 C.2    1 <0>      -0.1500
    6 C6       -0.0912     5.5055     0.0333 C.2    1 <0>       0.0600
    7 C7        1.1194     6.1836     0.0200 C.2    1 <0>      -0.2000
    8 C8        1.1341     7.6905     0.0289 C.3    1 <0>       0.1100
    9 N9        0.9983     8.1896    -1.3460 N.3    1 <0>      -0.5300
   10 C10       1.8848     7.4588    -2.2614 C.3    1 <0>       0.0400
   11 C11       1.5843     7.8806    -3.7036 C.3    1 <0>       0.1300
   12 N12       1.6730     9.3462    -3.7898 N.pl3  1 <0>      -0.5800
   13 C13       2.4464     9.9553    -4.7635 C.ar   1 <0>       0.5700
   14 N14       3.1083     9.2013    -5.6287 N.ar   1 <0>      -0.5600
   15 C15       3.8562     9.7508    -6.5712 C.ar   1 <0>       0.2100
   16 C16       3.9420    11.1331    -6.6463 C.ar   1 <0>      -0.2100
   17 Cl17      4.9113    11.8968    -7.8674 Cl     1 <0>      -0.0400
   18 C18       3.2360    11.8918    -5.7245 C.ar   1 <0>       0.2100
   19 N19       2.5024    11.2780    -4.8107 N.ar   1 <0>      -0.5600
   20 C20       0.9180    10.1476    -2.8147 C.3    1 <0>       0.1300
   21 C21       1.2447     9.6365    -1.4075 C.3    1 <0>       0.0400
   22 C22       2.3046     5.4892    -0.0009 C.2    1 <0>       0.1700
   23 N23       2.3303     4.1464    -0.0093 N.pl3  1 <0>      -0.5400
   24 C24       1.1634     3.4238     0.0036 C.2    1 <0>       0.2100
   25 C25       1.1857     2.0393     0.0017 C.2    1 <0>      -0.3200
   26 H26      -2.1723     1.4533     0.0405 H      1 <0>       0.1400
   27 H27      -2.2321     3.8850     0.0544 H      1 <0>       0.1400
   28 H28      -1.0248     6.0482     0.0493 H      1 <0>       0.1500
   29 H29       0.3045     8.0583     0.6326 H      1 <0>       0.1000
   30 H30       2.0752     8.0421     0.4518 H      1 <0>       0.0500
   31 H31       2.9232     7.6896    -2.0237 H      1 <0>       0.0400
   32 H32       1.7160     6.3874    -2.1531 H      1 <0>       0.0900
   33 H33       2.3135     7.4294    -4.3765 H      1 <0>       0.1000
   34 H34       0.5800     7.5578    -3.9778 H      1 <0>       0.0800
   35 H35       4.3937     9.1308    -7.2735 H      1 <0>       0.1800
   36 H36       3.2814    12.9704    -5.7550 H      1 <0>       0.1800
   37 H37       1.2066    11.1952    -2.9000 H      1 <0>       0.1000
   38 H38      -0.1504    10.0427    -3.0035 H      1 <0>       0.0800
   39 H39       0.6117    10.1445    -0.6799 H      1 <0>       0.0900
   40 H40       2.2920     9.8371    -1.1818 H      1 <0>       0.0400
   41 H41       3.2363     6.0353    -0.0110 H      1 <0>       0.1700
   42 H42       3.1821     3.6826    -0.0248 H      1 <0>       0.4300
   43 H43       2.1279     1.5117    -0.0104 H      1 <0>       0.1300
@<TRIPOS>BOND
   1    1    2 2
   2    2   25 1
   3    2    3 1
   4    3    4 2
   5    3   26 1
   6    4    5 1
   7    4   27 1
   8    5   24 1
   9    5    6 2
  10    6    7 1
  11    6   28 1
  12    7    8 1
  13    7   22 2
  14    8    9 1
  15    8   29 1
  16    8   30 1
  17    9   21 1
  18    9   10 1
  19   10   11 1
  20   10   31 1
  21   10   32 1
  22   11   12 1
  23   11   33 1
  24   11   34 1
  25   12   13 1
  26   12   20 1
  27   13   19 ar
  28   13   14 ar
  29   14   15 ar
  30   15   16 ar
  31   15   35 1
  32   16   17 1
  33   16   18 ar
  34   18   19 ar
  35   18   36 1
  36   20   21 1
  37   20   37 1
  38   20   38 1
  39   21   39 1
  40   21   40 1
  41   22   23 1
  42   22   41 1
  43   23   24 1
  44   23   42 1
  45   24   25 2
  46   25   43 1

@<TRIPOS>MOLECULE
ZINC000065464659
  44   47    0    0    0
SMALL
USER_CHARGES
NO_NAME
@<TRIPOS>ATOM
    1 O1        0.0021    -0.0041     0.0020 O.2    1 <0>      -0.5500
    2 C2       -0.0160     1.3292     0.0093 C.2    1 <0>       0.3400
    3 C3       -1.2489     2.0132     0.0307 C.2    1 <0>      -0.1500
    4 C4       -1.2836     3.3686     0.0384 C.2    1 <0>      -0.0700
    5 C5       -0.0809     4.1029     0.0251 C.2    1 <0>      -0.1200
    6 C6       -0.0912     5.5055     0.0333 C.2    1 <0>       0.0200
    7 C7        1.1194     6.1836     0.0200 C.2    1 <0>      -0.2900
    8 C8        1.1341     7.6905     0.0289 C.3    1 <0>       0.0600
    9 N9        0.9983     8.1896    -1.3460 N.4    1 <0>      -0.3900
   10 H10       1.7194     7.7830    -1.9229 H      1 <0>       0.4200
   11 C11       1.1370     9.6514    -1.3500 C.3    1 <0>      -0.0200
   12 C12       1.1102    10.1620    -2.7944 C.3    1 <0>       0.1100
   13 N13      -0.1144     9.6665    -3.4416 N.pl3  1 <0>      -0.6000
   14 C14      -0.9582    10.5277    -4.1227 C.ar   1 <0>       0.5600
   15 N15      -0.6493    11.8140    -4.1930 N.ar   1 <0>      -0.5500
   16 C16      -1.4333    12.6637    -4.8358 C.ar   1 <0>       0.2100
   17 C17      -2.5897    12.1928    -5.4397 C.ar   1 <0>      -0.1900
   18 Cl18     -3.6473    13.2723    -6.2940 Cl     1 <0>      -0.0200
   19 C19      -2.8823    10.8402    -5.3462 C.ar   1 <0>       0.2100
   20 N20      -2.0520    10.0444    -4.6927 N.ar   1 <0>      -0.5500
   21 C21      -0.4170     8.2301    -3.3450 C.3    1 <0>       0.1100
   22 C22      -0.3190     7.8126    -1.8738 C.3    1 <0>      -0.0300
   23 C23       2.3046     5.4892    -0.0009 C.2    1 <0>       0.2100
   24 N24       2.3303     4.1464    -0.0093 N.pl3  1 <0>      -0.5400
   25 C25       1.1634     3.4238     0.0036 C.2    1 <0>       0.1900
   26 C26       1.1857     2.0393     0.0017 C.2    1 <0>      -0.2800
   27 H27      -2.1723     1.4533     0.0405 H      1 <0>       0.1500
   28 H28      -2.2321     3.8850     0.0544 H      1 <0>       0.1500
   29 H29      -1.0248     6.0482     0.0493 H      1 <0>       0.1500
   30 H30       0.3045     8.0583     0.6326 H      1 <0>       0.1400
   31 H31       2.0752     8.0421     0.4518 H      1 <0>       0.1400
   32 H32       0.3131    10.0962    -0.7919 H      1 <0>       0.1400
   33 H33       2.0828     9.9281    -0.8842 H      1 <0>       0.1500
   34 H34       1.1109    11.2520    -2.7977 H      1 <0>       0.1400
   35 H35       1.9837     9.7907    -3.3304 H      1 <0>       0.0900
   36 H36      -1.1763    13.7113    -4.8894 H      1 <0>       0.1900
   37 H37      -3.7750    10.4411    -5.8048 H      1 <0>       0.1900
   38 H38      -1.4261     8.0429    -3.7122 H      1 <0>       0.1400
   39 H39       0.3022     7.6637    -3.9366 H      1 <0>       0.0900
   40 H40      -0.4452     6.7329    -1.7933 H      1 <0>       0.1400
   41 H41      -1.0993     8.3136    -1.3010 H      1 <0>       0.1400
   42 H42       3.2363     6.0353    -0.0110 H      1 <0>       0.1800
   43 H43       3.1821     3.6826    -0.0248 H      1 <0>       0.4400
   44 H44       2.1279     1.5117    -0.0104 H      1 <0>       0.1400
@<TRIPOS>BOND
   1    1    2 2
   2    2   26 1
   3    2    3 1
   4    3    4 2
   5    3   27 1
   6    4    5 1
   7    4   28 1
   8    5   25 1
   9    5    6 2
  10    6    7 1
  11    6   29 1
  12    7    8 1
  13    7   23 2
  14    8    9 1
  15    8   30 1
  16    8   31 1
  17    9   10 1
  18    9   22 1
  19    9   11 1
  20   11   12 1
  21   11   32 1
  22   11   33 1
  23   12   13 1
  24   12   34 1
  25   12   35 1
  26   13   14 1
  27   13   21 1
  28   14   20 ar
  29   14   15 ar
  30   15   16 ar
  31   16   17 ar
  32   16   36 1
  33   17   18 1
  34   17   19 ar
  35   19   20 ar
  36   19   37 1
  37   21   22 1
  38   21   38 1
  39   21   39 1
  40   22   40 1
  41   22   41 1
  42   23   24 1
  43   23   42 1
  44   24   25 1
  45   24   43 1
  46   25   26 2
  47   26   44 1
@<TRIPOS>MOLECULE
ZINC000048533385
34    35    1     0     0
SMALL
USER_CHARGES
@<TRIPOS>ATOM
1      C1     -0.0184    1.5028    0.0103 C.3      1 ZINC000048533385   -0.1000
2      C2      0.0021   -0.0041    0.0020 C.2      1 ZINC000048533385    0.1600
3      N3      0.0081   -0.7654   -1.0620 N.2      1 ZINC000048533385   -0.3100
4      N4      0.0285   -2.1021   -0.6436 N.pl3    1 ZINC000048533385   -0.3800
5      C5      0.0411   -3.2784   -1.5168 C.3      1 ZINC000048533385    0.1000
6      C6      0.0344   -2.1150    0.7058 C.2      1 ZINC000048533385    0.2000
7      C7      0.0552   -3.3404    1.5826 C.3      1 ZINC000048533385   -0.1300
8      C8      0.0240   -0.8302    1.1305 C.2      1 ZINC000048533385   -0.7700
9      S9      0.0271   -0.2930    2.8086 S.o2     1 ZINC000048533385    2.6800
10     O10    -0.5301    1.0142    2.8125 O.2      1 ZINC000048533385   -1.0200
11     O11    -0.5031   -1.3662    3.5744 O.2      1 ZINC000048533385   -1.0200
12     N12     1.6096   -0.1282    3.2676 N.pl3    1 ZINC000048533385   -1.1100
13     C13     1.9101    0.2754    4.5179 C.2      1 ZINC000048533385    0.5600
14     O14     1.0194    0.5184    5.3087 O.2      1 ZINC000048533385   -0.6300
15     C15     3.3230    0.4226    4.9278 C.ar     1 ZINC000048533385   -0.0700
16     C16     4.3478    0.1499    4.0205 C.ar     1 ZINC000048533385   -0.0500
17     C17     5.6645    0.2896    4.4087 C.ar     1 ZINC000048533385   -0.1400
18     C18     5.9703    0.6989    5.6941 C.ar     1 ZINC000048533385   -0.0900
19     C19     4.9587    0.9711    6.5995 C.ar     1 ZINC000048533385   -0.1100
20     Br20    5.3879    1.5306    8.3541 Br       1 ZINC000048533385   -0.0700
21     C21     3.6374    0.8404    6.2219 C.ar     1 ZINC000048533385   -0.0500
22     H22     1.0042    1.8801    0.0026 H        1 ZINC000048533385    0.0800
23     H23    -0.5455    1.8639   -0.8728 H        1 ZINC000048533385    0.0700
24     H24    -0.5286    1.8543    0.9071 H        1 ZINC000048533385    0.1100
25     H25     1.0717   -3.5556   -1.7381 H        1 ZINC000048533385    0.0700
26     H26    -0.4588   -4.1078   -1.0163 H        1 ZINC000048533385    0.0900
27     H27    -0.4804   -3.0471   -2.4456 H        1 ZINC000048533385    0.0900
28     H28     1.0877   -3.6219    1.7892 H        1 ZINC000048533385    0.0900
29     H29    -0.4573   -3.1251    2.5202 H        1 ZINC000048533385    0.1300
30     H30    -0.4499   -4.1607    1.0725 H        1 ZINC000048533385    0.0700
31     H31     4.1107   -0.1701    3.0166 H        1 ZINC000048533385    0.1500
32     H32     6.4582    0.0784    3.7074 H        1 ZINC000048533385    0.1300
33     H33     7.0026    0.8062    5.9929 H        1 ZINC000048533385    0.1300
34     H34     2.8489    1.0532    6.9286 H        1 ZINC000048533385    0.1400
@<TRIPOS>BOND
1     1     2     1
2     1     22    1
3     1     23    1
4     1     24    1
5     2     8     1
6     2     3     2
7     3     4     1
8     4     5     1
9     4     6     1
10    5     25    1
11    5     26    1
12    5     27    1
13    6     7     1
14    6     8     2
15    7     28    1
16    7     29    1
17    7     30    1
18    8     9     1
19    9     10    2
20    9     11    2
21    9     12    1
22    12    13    1
23    13    14    2
24    13    15    1
25    15    21    ar
26    15    16    ar
27    16    17    ar
28    16    31    1
29    17    18    ar
30    17    32    1
31    18    19    ar
32    18    33    1
33    19    20    1
34    19    21    ar
35    21    34    1
@<TRIPOS>SUBSTRUCTURE
1   ZINC000048533385 1     RESIDUE    1   A     ZIN   1
@<TRIPOS>MOLECULE
ZINC000056040434
29    30    1     0     0
SMALL
USER_CHARGES
@<TRIPOS>ATOM
1      C1     -0.0178    1.4608    0.0101 C.3      1 ZINC000056040434    0.0900
2      N2      0.0021   -0.0041    0.0020 N.pl3    1 ZINC000056040434   -0.3600
3      N3      0.0085   -0.8219   -1.1353 N.2      1 ZINC000056040434   -0.2800
4      C4      0.0271   -2.0695   -0.7415 C.2      1 ZINC000056040434    0.0500
5      C5      0.0330   -2.0862    0.6571 C.2      1 ZINC000056040434   -0.2500
6      C6      0.0233   -0.8038    1.0888 C.2      1 ZINC000056040434    0.0600
7      C7      0.0251   -0.3500    2.5259 C.3      1 ZINC000056040434    0.1700
8      N8      1.4005   -0.0763    2.9498 N.am     1 ZINC000056040434   -1.1100
9      S9      1.6840    0.7816    4.3376 S.o2     1 ZINC000056040434    2.7000
10     O10     3.0956    0.8462    4.4880 O.2      1 ZINC000056040434   -0.9400
11     O11     0.8557    1.9344    4.2730 O.2      1 ZINC000056040434   -0.9300
12     C12     1.0843   -0.1874    5.6815 C.ar     1 ZINC000056040434   -0.7200
13     C13     1.9589   -0.6799    6.6365 C.ar     1 ZINC000056040434    0.0700
14     C14     1.4418   -1.4384    7.6775 C.ar     1 ZINC000056040434   -0.1700
15     Br15    2.5846   -2.1378    9.0119 Br       1 ZINC000056040434    0.0000
16     C16     0.0809   -1.6759    7.7269 C.ar     1 ZINC000056040434    0.2100
17     N17    -0.7227   -1.1911    6.8001 N.ar     1 ZINC000056040434   -0.4700
18     C18    -0.2672   -0.4614    5.7996 C.ar     1 ZINC000056040434    0.2700
19     Cl19   -1.3738    0.1499    4.6099 Cl       1 ZINC000056040434    0.0100
20     H20     1.0048    1.8381    0.0023 H        1 ZINC000056040434    0.0800
21     H21    -0.5450    1.8219   -0.8730 H        1 ZINC000056040434    0.0900
22     H22    -0.5280    1.8123    0.9069 H        1 ZINC000056040434    0.0900
23     H23     0.0357   -2.9367   -1.3852 H        1 ZINC000056040434    0.1900
24     H24     0.0475   -2.9669    1.2820 H        1 ZINC000056040434    0.1500
25     H25    -0.5718    0.5570    2.6213 H        1 ZINC000056040434    0.0900
26     H26    -0.4000   -1.1325    3.1545 H        1 ZINC000056040434    0.1000
27     H27     2.1451   -0.3977    2.4176 H        1 ZINC000056040434    0.4300
28     H28     3.0180   -0.4787    6.5722 H        1 ZINC000056040434    0.1800
29     H29    -0.3291   -2.2655    8.5335 H        1 ZINC000056040434    0.1900
@<TRIPOS>BOND
1     1     2     1
2     1     20    1
3     1     21    1
4     1     22    1
5     2     6     1
6     2     3     1
7     3     4     2
8     4     5     1
9     4     23    1
10    5     6     2
11    5     24    1
12    6     7     1
13    7     8     1
14    7     25    1
15    7     26    1
16    8     9     am
17    8     27    1
18    9     10    2
19    9     11    2
20    9     12    1
21    12    18    ar
22    12    13    ar
23    13    14    ar
24    13    28    1
25    14    15    1
26    14    16    ar
27    16    17    ar
28    16    29    1
29    17    18    ar
30    18    19    1
@<TRIPOS>SUBSTRUCTURE
1   ZINC000056040434 1     RESIDUE    1   A     ZIN   1

@<TRIPOS>MOLECULE
ZINC000056040434
28    29    1     0     0
SMALL
USER_CHARGES
@<TRIPOS>ATOM
1      C1     -0.0178    1.4608    0.0101 C.3      1 ZINC000056040434    0.1100
2      N2      0.0021   -0.0041    0.0020 N.pl3    1 ZINC000056040434   -0.3700
3      N3      0.0085   -0.8219   -1.1353 N.2      1 ZINC000056040434   -0.3300
4      C4      0.0271   -2.0695   -0.7415 C.2      1 ZINC000056040434    0.0400
5      C5      0.0330   -2.0862    0.6571 C.2      1 ZINC000056040434   -0.2900
6      C6      0.0233   -0.8038    1.0888 C.2      1 ZINC000056040434    0.1600
7      C7      0.0251   -0.3500    2.5259 C.3      1 ZINC000056040434    0.2000
8      N8      1.4005   -0.0763    2.9498 N.pl3    1 ZINC000056040434   -1.1400
9      S9      1.7037    0.4416    4.4932 S.o2     1 ZINC000056040434    2.5800
10     O10     1.1239    1.7342    4.6038 O.2      1 ZINC000056040434   -1.0500
11     O11     1.3651   -0.6382    5.3526 O.2      1 ZINC000056040434   -1.0300
12     C12     3.4458    0.6638    4.6360 C.ar     1 ZINC000056040434   -0.6400
13     C13     3.9766    1.9249    4.8542 C.ar     1 ZINC000056040434    0.0500
14     C14     5.3546    2.0525    4.9600 C.ar     1 ZINC000056040434   -0.1800
15     Br15    6.1389    3.7471    5.2583 Br       1 ZINC000056040434   -0.0300
16     C16     6.1465    0.9253    4.8452 C.ar     1 ZINC000056040434    0.1800
17     N17     5.6068   -0.2602    4.6375 N.ar     1 ZINC000056040434   -0.4900
18     C18     4.3009   -0.4199    4.5374 C.ar     1 ZINC000056040434    0.2800
19     Cl19    3.6487   -2.0054    4.2643 Cl       1 ZINC000056040434    0.0300
20     H20     1.0048    1.8381    0.0023 H        1 ZINC000056040434    0.0700
21     H21    -0.5450    1.8219   -0.8730 H        1 ZINC000056040434    0.0700
22     H22    -0.5280    1.8123    0.9069 H        1 ZINC000056040434    0.0900
23     H23     0.0357   -2.9367   -1.3852 H        1 ZINC000056040434    0.1700
24     H24     0.0475   -2.9669    1.2820 H        1 ZINC000056040434    0.1400
25     H25    -0.5718    0.5570    2.6213 H        1 ZINC000056040434    0.0100
26     H26    -0.4000   -1.1325    3.1545 H        1 ZINC000056040434    0.0300
27     H27     3.3333    2.7882    4.9394 H        1 ZINC000056040434    0.1700
28     H28     7.2196    1.0165    4.9260 H        1 ZINC000056040434    0.1700
@<TRIPOS>BOND
1     1     2     1
2     1     20    1
3     1     21    1
4     1     22    1
5     2     6     1
6     2     3     1
7     3     4     2
8     4     5     1
9     4     23    1
10    5     6     2
11    5     24    1
12    6     7     1
13    7     8     1
14    7     25    1
15    7     26    1
16    8     9     1
17    9     10    2
18    9     11    2
19    9     12    1
20    12    18    ar
21    12    13    ar
22    13    14    ar
23    13    27    1
24    14    15    1
25    14    16    ar
26    16    17    ar
27    16    28    1
28    17    18    ar
29    18    19    1
@<TRIPOS>SUBSTRUCTURE
1   ZINC000056040434 1     RESIDUE    1   A     ZIN   1
@<TRIPOS>MOLECULE
ZINC000055663989
  47   49    0    0    0
SMALL
USER_CHARGES
NO_NAME
@<TRIPOS>ATOM
    1 C1        0.1041     1.2435     1.2213 C.3    1 <0>       0.0300
    2 O2        0.0929    -0.1592     0.9486 O.3    1 <0>      -0.2900
    3 C3       -1.1223    -0.7447     0.7745 C.ar   1 <0>       0.0600
    4 C4       -2.2770     0.0148     0.8584 C.ar   1 <0>      -0.1700
    5 C5       -3.5122    -0.5819     0.6807 C.ar   1 <0>      -0.1700
    6 C6       -4.7674     0.2471     0.7726 C.3    1 <0>      -0.0900
    7 C7       -3.5984    -1.9361     0.4185 C.ar   1 <0>      -0.0900
    8 C8       -2.4502    -2.7016     0.3331 C.ar   1 <0>      -0.2400
    9 C9       -1.2080    -2.1094     0.5054 C.ar   1 <0>       0.2600
   10 N10      -0.0442    -2.8820     0.4189 N.pl3  1 <0>      -1.0700
   11 S11      -0.1492    -4.5056     0.1105 S.o2   1 <0>       2.6000
   12 O12      -0.7783    -5.0893     1.2430 O.2    1 <0>      -1.0300
   13 O13      -0.6564    -4.6310    -1.2110 O.2    1 <0>      -1.0300
   14 C14       1.4954    -5.1370     0.0742 C.ar   1 <0>      -0.6300
   15 C15       2.1995    -5.1592    -1.1154 C.ar   1 <0>      -0.0100
   16 C16       3.4876    -5.6558    -1.1438 C.ar   1 <0>      -0.1700
   17 C17       4.0756    -6.1315     0.0223 C.ar   1 <0>       0.1800
   18 C18       3.3704    -6.1060     1.2154 C.ar   1 <0>      -0.1400
   19 C19       2.0802    -5.6036     1.2358 C.ar   1 <0>       0.0000
   20 C20       3.9792    -6.6031     2.4999 C.3    1 <0>      -0.0800
   21 C21       5.1482    -7.5441     2.2096 C.3    1 <0>      -0.1300
   22 C22       6.1078    -6.8560     1.2301 C.3    1 <0>       0.1000
   23 N23       5.3826    -6.6356    -0.0286 N.am   1 <0>      -0.5600
   24 C24       5.9641    -6.9138    -1.2123 C.2    1 <0>       0.5100
   25 C25       7.4150    -7.3180    -1.2625 C.3    1 <0>      -0.1700
   26 O26       5.3196    -6.8388    -2.2370 O.2    1 <0>      -0.5200
   27 H27       1.1334     1.5826     1.3383 H      1 <0>       0.0800
   28 H28      -0.3628     1.7782     0.3941 H      1 <0>       0.0400
   29 H29      -0.4497     1.4395     2.1394 H      1 <0>       0.0400
   30 H30      -2.2132     1.0733     1.0631 H      1 <0>       0.1100
   31 H31      -5.0174     0.6385    -0.2135 H      1 <0>       0.0500
   32 H32      -5.5868    -0.3733     1.1358 H      1 <0>       0.0500
   33 H33      -4.6059     1.0757     1.4621 H      1 <0>       0.0500
   34 H34      -4.5650    -2.3977     0.2805 H      1 <0>       0.1000
   35 H35      -2.5204    -3.7597     0.1281 H      1 <0>       0.1000
   36 H36       1.7426    -4.7890    -2.0213 H      1 <0>       0.1400
   37 H37       4.0383    -5.6750    -2.0726 H      1 <0>       0.1700
   38 H38       1.5256    -5.5841     2.1623 H      1 <0>       0.1400
   39 H39       4.3374    -5.7531     3.0808 H      1 <0>       0.0800
   40 H40       3.2218    -7.1368     3.0740 H      1 <0>       0.0800
   41 H41       5.6737    -7.7705     3.1373 H      1 <0>       0.0900
   42 H42       4.7730    -8.4663     1.7661 H      1 <0>       0.0700
   43 H43       6.4325    -5.9002     1.6413 H      1 <0>       0.0800
   44 H44       6.9728    -7.4945     1.0508 H      1 <0>       0.1000
   45 H45       7.8499    -7.2353    -0.2665 H      1 <0>       0.0800
   46 H46       7.4932    -8.3486    -1.6086 H      1 <0>       0.1000
   47 H47       7.9512    -6.6626    -1.9487 H      1 <0>       0.1000
@<TRIPOS>BOND
   1    1    2 1
   2    1   27 1
   3    1   28 1
   4    1   29 1
   5    2    3 1
   6    3    9 ar
   7    3    4 ar
   8    4    5 ar
   9    4   30 1
  10    5    6 1
  11    5    7 ar
  12    6   31 1
  13    6   32 1
  14    6   33 1
  15    7    8 ar
  16    7   34 1
  17    8    9 ar
  18    8   35 1
  19    9   10 1
  20   10   11 1
  21   11   12 2
  22   11   13 2
  23   11   14 1
  24   14   19 ar
  25   14   15 ar
  26   15   16 ar
  27   15   36 1
  28   16   17 ar
  29   16   37 1
  30   17   23 1
  31   17   18 ar
  32   18   19 ar
  33   18   20 1
  34   19   38 1
  35   20   21 1
  36   20   39 1
  37   20   40 1
  38   21   22 1
  39   21   41 1
  40   21   42 1
  41   22   23 1
  42   22   43 1
  43   22   44 1
  44   23   24 am
  45   24   25 1
  46   24   26 2
  47   25   45 1
  48   25   46 1
  49   25   47 1

@<TRIPOS>MOLECULE
ZINC000055663989
  48   50    0    0    0
SMALL
USER_CHARGES
NO_NAME
@<TRIPOS>ATOM
    1 C1        0.1893     1.5885     0.6011 C.3    1 <0>       0.0300
    2 O2        0.1460     0.1765     0.3862 O.3    1 <0>      -0.3100
    3 C3        0.8350    -0.3070    -0.6822 C.ar   1 <0>       0.1100
    4 C4        1.5412     0.5576    -1.5014 C.ar   1 <0>      -0.1900
    5 C5        2.2418     0.0645    -2.5874 C.ar   1 <0>      -0.0600
    6 C6        3.0096     1.0076    -3.4774 C.3    1 <0>      -0.1200
    7 C7        2.2400    -1.2908    -2.8582 C.ar   1 <0>      -0.1300
    8 C8        1.5373    -2.1608    -2.0451 C.ar   1 <0>      -0.1300
    9 C9        0.8365    -1.6742    -0.9517 C.ar   1 <0>       0.1200
   10 N10       0.1248    -2.5528    -0.1268 N.am   1 <0>      -1.0500
   11 S11       0.7194    -4.0682     0.1770 S.o2   1 <0>       2.6900
   12 O12      -0.1368    -4.6472     1.1522 O.2    1 <0>      -0.9500
   13 O13       0.9689    -4.6627    -1.0894 O.2    1 <0>      -0.9500
   14 C14       2.2898    -3.8670     0.9502 C.ar   1 <0>      -0.6900
   15 C15       3.4340    -3.7900     0.1779 C.ar   1 <0>       0.0000
   16 C16       4.6647    -3.6341     0.7843 C.ar   1 <0>      -0.1800
   17 C17       4.7526    -3.5535     2.1690 C.ar   1 <0>       0.2100
   18 C18       3.6049    -3.6275     2.9427 C.ar   1 <0>      -0.1400
   19 C19       2.3744    -3.7808     2.3266 C.ar   1 <0>       0.0100
   20 C20       3.6611    -3.5333     4.4446 C.3    1 <0>      -0.0800
   21 C21       5.0643    -3.8677     4.9501 C.3    1 <0>      -0.1400
   22 C22       6.0843    -3.0171     4.1821 C.3    1 <0>       0.0900
   23 N23       6.0119    -3.3998     2.7653 N.am   1 <0>      -0.5600
   24 C24       7.1373    -3.6001     2.0512 C.2    1 <0>       0.5100
   25 C25       8.4834    -3.4910     2.7199 C.3    1 <0>      -0.1800
   26 O26       7.0666    -3.8682     0.8705 O.2    1 <0>      -0.5100
   27 H27       1.2224     1.9015     0.7529 H      1 <0>       0.0600
   28 H28      -0.2216     2.1012    -0.2686 H      1 <0>       0.0600
   29 H29      -0.3998     1.8401     1.4831 H      1 <0>       0.1000
   30 H30       1.5447     1.6172    -1.2926 H      1 <0>       0.1300
   31 H31       4.0268     1.1154    -3.1008 H      1 <0>       0.0700
   32 H32       3.0379     0.6084    -4.4912 H      1 <0>       0.0700
   33 H33       2.5195     1.9812    -3.4838 H      1 <0>       0.0700
   34 H34       2.7885    -1.6713    -3.7073 H      1 <0>       0.1300
   35 H35       1.5375    -3.2194    -2.2590 H      1 <0>       0.1700
   36 H36      -0.7167    -2.2741     0.2669 H      1 <0>       0.4300
   37 H37       3.3654    -3.8521    -0.8982 H      1 <0>       0.1400
   38 H38       5.5594    -3.5752     0.1823 H      1 <0>       0.1800
   39 H39       1.4774    -3.8417     2.9250 H      1 <0>       0.1400
   40 H40       3.4001    -2.5205     4.7515 H      1 <0>       0.0800
   41 H41       2.9468    -4.2346     4.8760 H      1 <0>       0.0900
   42 H42       5.1314    -3.6452     6.0150 H      1 <0>       0.0900
   43 H43       5.2704    -4.9248     4.7825 H      1 <0>       0.0800
   44 H44       5.8410    -1.9603     4.2919 H      1 <0>       0.0800
   45 H45       7.0869    -3.2076     4.5652 H      1 <0>       0.1100
   46 H46       8.3517    -3.1589     3.7497 H      1 <0>       0.0900
   47 H47       8.9730    -4.4648     2.7119 H      1 <0>       0.1000
   48 H48       9.0991    -2.7704     2.1817 H      1 <0>       0.1000
@<TRIPOS>BOND
   1    1    2 1
   2    1   27 1
   3    1   28 1
   4    1   29 1
   5    2    3 1
   6    3    9 ar
   7    3    4 ar
   8    4    5 ar
   9    4   30 1
  10    5    6 1
  11    5    7 ar
  12    6   31 1
  13    6   32 1
  14    6   33 1
  15    7    8 ar
  16    7   34 1
  17    8    9 ar
  18    8   35 1
  19    9   10 1
  20   10   11 am
  21   10   36 1
  22   11   12 2
  23   11   13 2
  24   11   14 1
  25   14   19 ar
  26   14   15 ar
  27   15   16 ar
  28   15   37 1
  29   16   17 ar
  30   16   38 1
  31   17   23 1
  32   17   18 ar
  33   18   19 ar
  34   18   20 1
  35   19   39 1
  36   20   21 1
  37   20   40 1
  38   20   41 1
  39   21   22 1
  40   21   42 1
  41   21   43 1
  42   22   23 1
  43   22   44 1
  44   22   45 1
  45   23   24 am
  46   24   25 1
  47   24   26 2
  48   25   46 1
  49   25   47 1
  50   25   48 1
@<TRIPOS>MOLECULE
ZINC000072429805
43    45    1     0     0
SMALL
USER_CHARGES
@<TRIPOS>ATOM
1      C1     -2.2979   -0.3225   -0.2311 C.3      1 ZINC000072429805   -0.1200
2      C2     -1.8133   -1.7405   -0.3911 C.ar     1 ZINC000072429805   -0.0800
3      C3     -1.3738   -2.1858   -1.6237 C.ar     1 ZINC000072429805   -0.1200
4      C4     -0.9292   -3.4865   -1.7704 C.ar     1 ZINC000072429805   -0.1000
5      C5     -0.9237   -4.3417   -0.6844 C.ar     1 ZINC000072429805   -0.1200
6      C6     -0.4395   -5.7598   -0.8445 C.3      1 ZINC000072429805    0.1500
7      N7      1.0013   -5.8160   -0.5853 N.am     1 ZINC000072429805   -0.5900
8      C8      1.9005   -5.6156   -1.7134 C.3      1 ZINC000072429805    0.1000
9      C9      3.2828   -5.1696   -1.2329 C.3      1 ZINC000072429805    0.1000
10     N10     3.6866   -6.0443   -0.1191 N.am     1 ZINC000072429805   -0.6200
11     C11     4.7853   -6.8206   -0.1999 C.2      1 ZINC000072429805    0.6000
12     O12     5.3972   -6.9013   -1.2480 O.2      1 ZINC000072429805   -0.5000
13     C13     5.2447   -7.5708    0.9799 C.2      1 ZINC000072429805   -0.0400
14     C14     6.1345   -8.6308    0.9957 C.2      1 ZINC000072429805   -0.1000
15     C15     6.2482   -8.9984    2.3383 C.2      1 ZINC000072429805   -0.0700
16     C16     7.1059  -10.1109    2.8841 C.3      1 ZINC000072429805    0.5600
17     F17     8.3738   -9.6105    3.1993 F        1 ZINC000072429805   -0.1700
18     F18     6.5116  -10.6352    4.0370 F        1 ZINC000072429805   -0.1600
19     F19     7.2285  -11.1197    1.9226 F        1 ZINC000072429805   -0.1600
20     N20     5.4784   -8.2048    3.0384 N.2      1 ZINC000072429805   -0.2000
21     N21     4.8830   -7.3565    2.2796 N.pl3    1 ZINC000072429805   -0.3600
22     C22     2.8427   -6.0358    1.0851 C.3      1 ZINC000072429805    0.0800
23     C23     1.3976   -6.0418    0.6681 C.2      1 ZINC000072429805    0.5200
24     O24     0.5539   -6.2709    1.5086 O.2      1 ZINC000072429805   -0.5300
25     C25    -1.3619   -3.8959    0.5486 C.ar     1 ZINC000072429805   -0.0900
26     C26    -1.8028   -2.5941    0.6962 C.ar     1 ZINC000072429805   -0.1200
27     H27    -1.4588    0.3204    0.0347 H        1 ZINC000072429805    0.0700
28     H28    -2.7352    0.0199   -1.1690 H        1 ZINC000072429805    0.0700
29     H29    -3.0502   -0.2824    0.5566 H        1 ZINC000072429805    0.0700
30     H30    -1.3781   -1.5177   -2.4722 H        1 ZINC000072429805    0.1200
31     H31    -0.5866   -3.8346   -2.7337 H        1 ZINC000072429805    0.1200
32     H32    -0.9614   -6.4039   -0.1368 H        1 ZINC000072429805    0.1000
33     H33    -0.6394   -6.0994   -1.8607 H        1 ZINC000072429805    0.0900
34     H34     1.9971   -6.5504   -2.2657 H        1 ZINC000072429805    0.0800
35     H35     1.4859   -4.8521   -2.3716 H        1 ZINC000072429805    0.1000
36     H36     4.0013   -5.2565   -2.0480 H        1 ZINC000072429805    0.1200
37     H37     3.2373   -4.1357   -0.8907 H        1 ZINC000072429805    0.0900
38     H38     6.6345   -9.0786    0.1496 H        1 ZINC000072429805    0.1800
39     H39     4.2654   -6.6727    2.5825 H        1 ZINC000072429805    0.4500
40     H40     3.0557   -6.9196    1.6864 H        1 ZINC000072429805    0.1100
41     H41     3.0471   -5.1377    1.6679 H        1 ZINC000072429805    0.1200
42     H42    -1.3572   -4.5640    1.3972 H        1 ZINC000072429805    0.1300
43     H43    -2.1452   -2.2459    1.6594 H        1 ZINC000072429805    0.1200
@<TRIPOS>BOND
1     1     2     1
2     1     27    1
3     1     28    1
4     1     29    1
5     2     26    ar
6     2     3     ar
7     3     4     ar
8     3     30    1
9     4     5     ar
10    4     31    1
11    5     6     1
12    5     25    ar
13    6     7     1
14    6     32    1
15    6     33    1
16    7     23    am
17    7     8     1
18    8     9     1
19    8     34    1
20    8     35    1
21    9     10    1
22    9     36    1
23    9     37    1
24    10    11    am
25    10    22    1
26    11    12    2
27    11    13    1
28    13    21    1
29    13    14    2
30    14    15    1
31    14    38    1
32    15    16    1
33    15    20    2
34    16    17    1
35    16    18    1
36    16    19    1
37    20    21    1
38    21    39    1
39    22    23    1
40    22    40    1
41    22    41    1
42    23    24    2
43    25    26    ar
44    25    42    1
45    26    43    1
@<TRIPOS>SUBSTRUCTURE
1   ZINC000072429805 1     RESIDUE    1   A     ZIN   1

@<TRIPOS>MOLECULE
ZINC000072429805
43    45    1     0     0
SMALL
USER_CHARGES
@<TRIPOS>ATOM
1      C1     -1.3003    0.6182   -0.0335 C.3      1 ZINC000072429805   -0.1200
2      C2     -1.0346   -0.8616   -0.1371 C.ar     1 ZINC000072429805   -0.0800
3      C3     -0.7884   -1.4349   -1.3706 C.ar     1 ZINC000072429805   -0.1200
4      C4     -0.5447   -2.7923   -1.4656 C.ar     1 ZINC000072429805   -0.1000
5      C5     -0.5467   -3.5762   -0.3271 C.ar     1 ZINC000072429805   -0.1200
6      C6     -0.2815   -5.0561   -0.4308 C.3      1 ZINC000072429805    0.1400
7      N7      1.1566   -5.3046   -0.3030 N.am     1 ZINC000072429805   -0.6000
8      C8      1.9554   -5.3004   -1.5209 C.3      1 ZINC000072429805    0.1000
9      C9      3.4276   -5.0316   -1.2032 C.3      1 ZINC000072429805    0.1000
10     N10     3.8182   -5.8907   -0.0726 N.am     1 ZINC000072429805   -0.6100
11     C11     4.7853   -6.8206   -0.1999 C.2      1 ZINC000072429805    0.6100
12     O12     5.2783   -7.0398   -1.2894 O.2      1 ZINC000072429805   -0.5100
13     C13     5.2464   -7.5736    0.9843 C.2      1 ZINC000072429805   -0.0100
14     N14     4.8880   -7.3642    2.2353 N.2      1 ZINC000072429805   -0.2200
15     N15     5.4798   -8.2013    3.0095 N.pl3    1 ZINC000072429805   -0.3400
16     C16     6.2749   -9.0217    2.2896 C.2      1 ZINC000072429805   -0.0800
17     C17     7.1336  -10.1357    2.8306 C.3      1 ZINC000072429805    0.5500
18     F18     6.9888  -10.2032    4.2204 F        1 ZINC000072429805   -0.1700
19     F19     6.7358  -11.3499    2.2607 F        1 ZINC000072429805   -0.1600
20     F20     8.4733   -9.8882    2.5128 F        1 ZINC000072429805   -0.1600
21     C21     6.1522   -8.6607    0.9908 C.2      1 ZINC000072429805   -0.1000
22     C22     3.1104   -5.6923    1.2009 C.3      1 ZINC000072429805    0.0900
23     C23     1.6434   -5.5136    0.9211 C.2      1 ZINC000072429805    0.5100
24     O24     0.8661   -5.5705    1.8504 O.2      1 ZINC000072429805   -0.5400
25     C25    -0.7915   -3.0027    0.9066 C.ar     1 ZINC000072429805   -0.0900
26     C26    -1.0314   -1.6446    1.0021 C.ar     1 ZINC000072429805   -0.1200
27     H27    -0.3579    1.1476    0.1073 H        1 ZINC000072429805    0.0700
28     H28    -1.7793    0.9663   -0.9486 H        1 ZINC000072429805    0.0700
29     H29    -1.9558    0.8111    0.8158 H        1 ZINC000072429805    0.0700
30     H30    -0.7869   -0.8224   -2.2601 H        1 ZINC000072429805    0.1200
31     H31    -0.3531   -3.2403   -2.4295 H        1 ZINC000072429805    0.1200
32     H32    -0.8125   -5.5770    0.3660 H        1 ZINC000072429805    0.1000
33     H33    -0.6287   -5.4206   -1.3976 H        1 ZINC000072429805    0.0900
34     H34     1.8654   -6.2691   -2.0123 H        1 ZINC000072429805    0.0800
35     H35     1.5852   -4.5237   -2.1900 H        1 ZINC000072429805    0.0900
36     H36     4.0405   -5.2674   -2.0732 H        1 ZINC000072429805    0.1200
37     H37     3.5601   -3.9842   -0.9322 H        1 ZINC000072429805    0.0900
38     H38     5.3710   -8.2388    3.9727 H        1 ZINC000072429805    0.4600
39     H39     6.6471   -9.1043    0.1394 H        1 ZINC000072429805    0.1800
40     H40     3.2596   -6.5619    1.8409 H        1 ZINC000072429805    0.1400
41     H41     3.4950   -4.8013    1.6974 H        1 ZINC000072429805    0.1100
42     H42    -0.7926   -3.6151    1.7962 H        1 ZINC000072429805    0.1300
43     H43    -1.2226   -1.1965    1.9659 H        1 ZINC000072429805    0.1200
@<TRIPOS>BOND
1     1     2     1
2     1     27    1
3     1     28    1
4     1     29    1
5     2     26    ar
6     2     3     ar
7     3     4     ar
8     3     30    1
9     4     5     ar
10    4     31    1
11    5     6     1
12    5     25    ar
13    6     7     1
14    6     32    1
15    6     33    1
16    7     23    am
17    7     8     1
18    8     9     1
19    8     34    1
20    8     35    1
21    9     10    1
22    9     36    1
23    9     37    1
24    10    11    am
25    10    22    1
26    11    12    2
27    11    13    1
28    13    21    1
29    13    14    2
30    14    15    1
31    15    16    1
32    15    38    1
33    16    17    1
34    16    21    2
35    17    18    1
36    17    19    1
37    17    20    1
38    21    39    1
39    22    23    1
40    22    40    1
41    22    41    1
42    23    24    2
43    25    26    ar
44    25    42    1
45    26    43    1
@<TRIPOS>SUBSTRUCTURE
1   ZINC000072429805 1     RESIDUE    1   A     ZIN   1
@<TRIPOS>MOLECULE
ZINC000004938514
41    45    1     0     0
SMALL
USER_CHARGES
@<TRIPOS>ATOM
1      C1     -0.0178    1.4608    0.0101 C.3      1 ZINC000004938514    0.0700
2      N2      0.0021   -0.0041    0.0020 N.pl3    1 ZINC000004938514   -0.4600
3      C3      0.0088   -0.8225   -1.0909 C.2      1 ZINC000004938514    0.1300
4      S4     -0.0042   -0.3166   -2.7786 S.3      1 ZINC000004938514    0.1200
5      C5      0.0142   -1.9336   -3.5916 C.3      1 ZINC000004938514   -0.0900
6      C6      0.0061   -1.7444   -5.0866 C.2      1 ZINC000004938514    0.4600
7      N7     -0.0065   -0.5305   -5.5630 N.2      1 ZINC000004938514   -0.5700
8      C8     -0.0143   -0.2979   -6.8863 C.2      1 ZINC000004938514    0.5500
9      O9     -0.0253    0.8435   -7.3185 O.2      1 ZINC000004938514   -0.4800
10     C10    -0.0086   -1.4527   -7.8064 C.2      1 ZINC000004938514   -0.2000
11     C11     0.0047   -2.7132   -7.2474 C.2      1 ZINC000004938514    0.0500
12     N12     0.0176   -2.8321   -5.8728 N.pl3    1 ZINC000004938514   -0.5800
13     S13     0.0091   -3.9239   -8.5163 S.3      1 ZINC000004938514    0.2100
14     C14    -0.0070   -2.6994   -9.7849 C.2      1 ZINC000004938514   -0.2200
15     C15    -0.0150   -1.4772   -9.2700 C.2      1 ZINC000004938514   -0.0500
16     C16    -0.0296   -0.4347  -10.3879 C.3      1 ZINC000004938514   -0.0600
17     C17     0.4203   -1.1988  -11.6487 C.3      1 ZINC000004938514   -0.1200
18     C18    -0.0142   -2.6385  -11.3092 C.3      1 ZINC000004938514   -0.0400
19     N19     0.0274   -2.0576   -0.6463 N.2      1 ZINC000004938514   -0.3000
20     N20     0.0325   -2.0589    0.6390 N.2      1 ZINC000004938514   -0.2800
21     C21     0.0237   -0.8356    1.0876 C.2      1 ZINC000004938514    0.2200
22     C22     0.0265   -0.4150    2.5347 C.3      1 ZINC000004938514   -0.0900
23     C23    -0.1630   -1.5080    3.5884 C.3      1 ZINC000004938514   -0.1500
24     C24     1.2095   -0.8595    3.3972 C.3      1 ZINC000004938514   -0.1600
25     H25     1.0048    1.8381    0.0023 H        1 ZINC000004938514    0.0900
26     H26    -0.5450    1.8219   -0.8730 H        1 ZINC000004938514    0.1000
27     H27    -0.5280    1.8123    0.9069 H        1 ZINC000004938514    0.1000
28     H28     0.9126   -2.4772   -3.2990 H        1 ZINC000004938514    0.1400
29     H29    -0.8672   -2.5008   -3.2923 H        1 ZINC000004938514    0.1400
30     H30     0.0273   -3.7140   -5.4691 H        1 ZINC000004938514    0.4300
31     H31    -1.0360   -0.0386  -10.5237 H        1 ZINC000004938514    0.0900
32     H32     0.6689    0.3714  -10.1637 H        1 ZINC000004938514    0.0800
33     H33    -0.0994   -0.8323  -12.5340 H        1 ZINC000004938514    0.0900
34     H34     1.5008   -1.1370  -11.7782 H        1 ZINC000004938514    0.0800
35     H35     0.6955   -3.3560  -11.7209 H        1 ZINC000004938514    0.0800
36     H36    -1.0163   -2.8325  -11.6918 H        1 ZINC000004938514    0.0900
37     H37    -0.4068    0.5637    2.7407 H        1 ZINC000004938514    0.1300
38     H38    -0.7213   -1.2486    4.4879 H        1 ZINC000004938514    0.1100
39     H39    -0.2897   -2.5313    3.2349 H        1 ZINC000004938514    0.1100
40     H40     1.9857   -1.4561    2.9179 H        1 ZINC000004938514    0.1000
41     H41     1.5541   -0.1734    4.1709 H        1 ZINC000004938514    0.1100
@<TRIPOS>BOND
1     1     2     1
2     1     25    1
3     1     26    1
4     1     27    1
5     2     21    1
6     2     3     1
7     3     4     1
8     3     19    2
9     4     5     1
10    5     6     1
11    5     28    1
12    5     29    1
13    6     12    1
14    6     7     2
15    7     8     1
16    8     9     2
17    8     10    1
18    10    15    1
19    10    11    2
20    11    12    1
21    11    13    1
22    12    30    1
23    13    14    1
24    14    18    1
25    14    15    2
26    15    16    1
27    16    17    1
28    16    31    1
29    16    32    1
30    17    18    1
31    17    33    1
32    17    34    1
33    18    35    1
34    18    36    1
35    19    20    1
36    20    21    2
37    21    22    1
38    22    24    1
39    22    23    1
40    22    37    1
41    23    24    1
42    23    38    1
43    23    39    1
44    24    40    1
45    24    41    1
@<TRIPOS>SUBSTRUCTURE
1   ZINC000004938514 1     RESIDUE    1   A     ZIN   1
@<TRIPOS>MOLECULE
ZINC000003620983
  45   47    0    0    0
SMALL
USER_CHARGES
NO_NAME
@<TRIPOS>ATOM
    1 C1       -5.4672    -4.7525    -0.4298 C.3    1 <0>      -0.1200
    2 C2       -3.9778    -4.5509    -0.3204 C.ar   1 <0>      -0.0900
    3 C3       -3.4587    -3.2715    -0.2430 C.ar   1 <0>      -0.1000
    4 C4       -2.0942    -3.0832    -0.1427 C.ar   1 <0>      -0.1200
    5 C5       -1.2430    -4.1807    -0.1196 C.ar   1 <0>       0.1300
    6 N6        0.1374    -3.9938    -0.0177 N.am   1 <0>      -1.0500
    7 S7        1.0186    -4.8985     1.0534 S.o2   1 <0>       2.6900
    8 O8        0.6930    -6.2572     0.7941 O.2    1 <0>      -0.9400
    9 O9        2.3466    -4.3950     1.0066 O.2    1 <0>      -0.9500
   10 C10       0.4069    -4.5394     2.6663 C.ar   1 <0>      -0.6600
   11 C11       0.8834    -3.4375     3.3540 C.ar   1 <0>      -0.0200
   12 C12       0.4090    -3.1509     4.6174 C.ar   1 <0>      -0.0800
   13 C13      -0.5541    -3.9753     5.2014 C.ar   1 <0>      -0.0700
   14 C14      -1.0673    -3.6740     6.5548 C.2    1 <0>       0.5600
   15 O15      -1.1566    -2.5206     6.9281 O.2    1 <0>      -0.5200
   16 N16      -1.4362    -4.6781     7.3746 N.am   1 <0>      -0.6100
   17 C17      -1.2195    -6.0835     6.9961 C.3    1 <0>       0.0500
   18 C18      -0.5126    -6.7933     8.1565 C.3    1 <0>       0.0500
   19 O19      -1.2449    -6.5664     9.3631 O.3    1 <0>      -0.3800
   20 C20      -1.3188    -5.1931     9.7535 C.3    1 <0>       0.0500
   21 C21      -2.0619    -4.4013     8.6774 C.3    1 <0>       0.0800
   22 C22      -1.0308    -5.0851     4.5020 C.ar   1 <0>      -0.1200
   23 C23      -0.5518    -5.3575     3.2372 C.ar   1 <0>      -0.0200
   24 C24      -1.7679    -5.4645    -0.1975 C.ar   1 <0>      -0.1500
   25 C25      -3.1337    -5.6458    -0.2919 C.ar   1 <0>      -0.1000
   26 H26      -5.8977    -4.8295     0.5686 H      1 <0>       0.0700
   27 H27      -5.9111    -3.9052    -0.9525 H      1 <0>       0.0700
   28 H28      -5.6701    -5.6685    -0.9846 H      1 <0>       0.0700
   29 H29      -4.1210    -2.4186    -0.2614 H      1 <0>       0.1300
   30 H30      -1.6894    -2.0837    -0.0827 H      1 <0>       0.1300
   31 H31       0.5799    -3.3342    -0.5744 H      1 <0>       0.4300
   32 H32       1.6286    -2.8004     2.9010 H      1 <0>       0.1500
   33 H33       0.7822    -2.2908     5.1535 H      1 <0>       0.1500
   34 H34      -2.1787    -6.5634     6.8019 H      1 <0>       0.0900
   35 H35      -0.5969    -6.1312     6.1026 H      1 <0>       0.1100
   36 H36      -0.4661    -7.8634     7.9545 H      1 <0>       0.1100
   37 H37       0.4975    -6.3980     8.2638 H      1 <0>       0.0600
   38 H38      -1.8523    -5.1121    10.7006 H      1 <0>       0.1100
   39 H39      -0.3116    -4.7921     9.8667 H      1 <0>       0.0600
   40 H40      -1.9996    -3.3355     8.8972 H      1 <0>       0.1100
   41 H41      -3.1067    -4.7105     8.6498 H      1 <0>       0.0800
   42 H42      -1.7757    -5.7271     4.9485 H      1 <0>       0.1500
   43 H43      -0.9201    -6.2157     2.6948 H      1 <0>       0.1500
   44 H44      -1.1088    -6.3199    -0.1801 H      1 <0>       0.1600
   45 H45      -3.5424    -6.6437    -0.3525 H      1 <0>       0.1300
@<TRIPOS>BOND
   1    1    2 1
   2    1   26 1
   3    1   27 1
   4    1   28 1
   5    2   25 ar
   6    2    3 ar
   7    3    4 ar
   8    3   29 1
   9    4    5 ar
  10    4   30 1
  11    5    6 1
  12    5   24 ar
  13    6    7 am
  14    6   31 1
  15    7    8 2
  16    7    9 2
  17    7   10 1
  18   10   23 ar
  19   10   11 ar
  20   11   12 ar
  21   11   32 1
  22   12   13 ar
  23   12   33 1
  24   13   14 1
  25   13   22 ar
  26   14   15 2
  27   14   16 am
  28   16   21 1
  29   16   17 1
  30   17   18 1
  31   17   34 1
  32   17   35 1
  33   18   19 1
  34   18   36 1
  35   18   37 1
  36   19   20 1
  37   20   21 1
  38   20   38 1
  39   20   39 1
  40   21   40 1
  41   21   41 1
  42   22   23 ar
  43   22   42 1
  44   23   43 1
  45   24   25 ar
  46   24   44 1
  47   25   45 1

@<TRIPOS>MOLECULE
ZINC000003620983
  44   46    0    0    0
SMALL
USER_CHARGES
NO_NAME
@<TRIPOS>ATOM
    1 C1       -0.6109     1.4800    -0.0522 C.3    1 <0>      -0.0900
    2 C2       -0.5211    -0.0243    -0.0525 C.ar   1 <0>      -0.2000
    3 C3       -0.7572    -0.7293    -1.2185 C.ar   1 <0>      -0.0800
    4 C4       -0.6758    -2.1079    -1.2222 C.ar   1 <0>      -0.1800
    5 C5       -0.3562    -2.7864    -0.0529 C.ar   1 <0>       0.2800
    6 N6       -0.2726    -4.1806    -0.0533 N.pl3  1 <0>      -1.0900
    7 S7        0.1085    -4.9876     1.3417 S.o2   1 <0>       2.6000
    8 O8        1.4491    -4.6359     1.6553 O.2    1 <0>      -1.0300
    9 O9       -0.9781    -4.7817     2.2340 O.2    1 <0>      -1.0300
   10 C10       0.1213    -6.7082     0.9621 C.ar   1 <0>      -0.5900
   11 C11      -1.0403    -7.4495     1.0861 C.ar   1 <0>      -0.0300
   12 C12      -1.0369    -8.7971     0.7909 C.ar   1 <0>      -0.0900
   13 C13       0.1416    -9.4123     0.3658 C.ar   1 <0>      -0.1000
   14 C14       0.1524   -10.8560     0.0473 C.2    1 <0>       0.5700
   15 O15      -0.8016   -11.3625    -0.5103 O.2    1 <0>      -0.5300
   16 N16       1.2200   -11.6105     0.3751 N.am   1 <0>      -0.6100
   17 C17       2.3275   -11.0524     1.1670 C.3    1 <0>       0.0600
   18 C18       2.6120   -12.0016     2.3367 C.3    1 <0>       0.0500
   19 O19       2.7963   -13.3268     1.8332 O.3    1 <0>      -0.3800
   20 C20       1.6461   -13.8704     1.1810 C.3    1 <0>       0.0500
   21 C21       1.3096   -13.0185    -0.0430 C.3    1 <0>       0.0800
   22 C22       1.3099    -8.6586     0.2424 C.ar   1 <0>      -0.1200
   23 C23       1.2916    -7.3107     0.5358 C.ar   1 <0>      -0.0300
   24 C24      -0.1196    -2.0751     1.1166 C.ar   1 <0>      -0.2600
   25 C25      -0.1972    -0.6962     1.1119 C.ar   1 <0>      -0.0600
   26 H26       0.3642     1.9022    -0.2951 H      1 <0>       0.0500
   27 H27      -1.3409     1.8005    -0.7955 H      1 <0>       0.0500
   28 H28      -0.9210     1.8253     0.9340 H      1 <0>       0.0500
   29 H29      -1.0059    -0.2012    -2.1271 H      1 <0>       0.1000
   30 H30      -0.8606    -2.6579    -2.1331 H      1 <0>       0.1100
   31 H31      -1.9515    -6.9722     1.4150 H      1 <0>       0.1500
   32 H32      -1.9442    -9.3748     0.8887 H      1 <0>       0.1400
   33 H33       3.2164   -10.9625     0.5426 H      1 <0>       0.0800
   34 H34       2.0468   -10.0713     1.5503 H      1 <0>       0.1100
   35 H35       3.5153   -11.6801     2.8551 H      1 <0>       0.1100
   36 H36       1.7701   -11.9889     3.0289 H      1 <0>       0.0600
   37 H37       1.8546   -14.8935     0.8680 H      1 <0>       0.1100
   38 H38       0.8007   -13.8645     1.8690 H      1 <0>       0.0600
   39 H39       0.3564   -13.3397    -0.4630 H      1 <0>       0.1000
   40 H40       2.0952   -13.1243    -0.7911 H      1 <0>       0.0800
   41 H41       2.2251    -9.1288    -0.0856 H      1 <0>       0.1300
   42 H42       2.1948    -6.7262     0.4404 H      1 <0>       0.1500
   43 H43       0.1286    -2.5996     2.0274 H      1 <0>       0.1000
   44 H44      -0.0134    -0.1426     2.0208 H      1 <0>       0.1000
@<TRIPOS>BOND
   1    1    2 1
   2    1   26 1
   3    1   27 1
   4    1   28 1
   5    2   25 ar
   6    2    3 ar
   7    3    4 ar
   8    3   29 1
   9    4    5 ar
  10    4   30 1
  11    5    6 1
  12    5   24 ar
  13    6    7 1
  14    7    8 2
  15    7    9 2
  16    7   10 1
  17   10   23 ar
  18   10   11 ar
  19   11   12 ar
  20   11   31 1
  21   12   13 ar
  22   12   32 1
  23   13   14 1
  24   13   22 ar
  25   14   15 2
  26   14   16 am
  27   16   21 1
  28   16   17 1
  29   17   18 1
  30   17   33 1
  31   17   34 1
  32   18   19 1
  33   18   35 1
  34   18   36 1
  35   19   20 1
  36   20   21 1
  37   20   37 1
  38   20   38 1
  39   21   39 1
  40   21   40 1
  41   22   23 ar
  42   22   41 1
  43   23   42 1
  44   24   25 ar
  45   24   43 1
  46   25   44 1
@<TRIPOS>MOLECULE
ZINC000085235556
34    35    1     0     0
SMALL
USER_CHARGES
@<TRIPOS>ATOM
1      C1     -0.0184    1.5028    0.0103 C.3      1 ZINC000085235556   -0.1100
2      C2      0.0021   -0.0041    0.0020 C.ar     1 ZINC000085235556   -0.0800
3      C3      0.0060   -0.6978   -1.1962 C.ar     1 ZINC000085235556   -0.1400
4      C4      0.0256   -2.0904   -1.1550 C.ar     1 ZINC000085235556    0.2400
5      N5      0.0307   -2.8347   -2.3381 N.pl3    1 ZINC000085235556   -1.0800
6      S6      0.0541   -4.4893   -2.2753 S.o2     1 ZINC000085235556    2.6000
7      O7      1.3114   -4.8521   -1.7216 O.2      1 ZINC000085235556   -1.0200
8      O8     -1.1877   -4.8870   -1.7105 O.2      1 ZINC000085235556   -1.0200
9      C9      0.0549   -5.0744   -3.9373 C.ar     1 ZINC000085235556   -0.6400
10     C10    -1.1417   -5.3151   -4.5858 C.ar     1 ZINC000085235556    0.0300
11     C11    -1.1411   -5.7742   -5.8899 C.ar     1 ZINC000085235556   -0.1600
12     C12     0.0561   -5.9919   -6.5453 C.ar     1 ZINC000085235556    0.0100
13     C13     1.2531   -5.7502   -5.8970 C.ar     1 ZINC000085235556   -0.6900
14     S14     2.7793   -6.0283   -6.7324 S.o2     1 ZINC000085235556    2.5000
15     C15     3.1534   -4.4432   -7.5313 C.3      1 ZINC000085235556   -0.6500
16     O16     3.7070   -6.2919   -5.6888 O.2      1 ZINC000085235556   -0.9300
17     O17     2.4711   -7.0168   -7.7056 O.2      1 ZINC000085235556   -0.9400
18     C18     1.2524   -5.2872   -4.5947 C.ar     1 ZINC000085235556    0.0700
19     C19     0.0404   -2.7281    0.0782 C.ar     1 ZINC000085235556   -0.0300
20     N20     0.0361   -2.0298    1.1967 N.ar     1 ZINC000085235556   -0.4300
21     C21     0.0230   -0.7106    1.1922 C.ar     1 ZINC000085235556    0.0700
22     Cl22    0.0185    0.1508    2.6994 Cl       1 ZINC000085235556   -0.0800
23     H23     1.0042    1.8801    0.0026 H        1 ZINC000085235556    0.0700
24     H24    -0.5455    1.8639   -0.8728 H        1 ZINC000085235556    0.0700
25     H25    -0.5286    1.8543    0.9071 H        1 ZINC000085235556    0.0700
26     H26    -0.0062   -0.1724   -2.1397 H        1 ZINC000085235556    0.1300
27     H27    -2.0772   -5.1450   -4.0736 H        1 ZINC000085235556    0.1500
28     H28    -2.0761   -5.9630   -6.3964 H        1 ZINC000085235556    0.1400
29     H29     0.0566   -6.3512   -7.5638 H        1 ZINC000085235556    0.1400
30     H30     3.2406   -3.6656   -6.7725 H        1 ZINC000085235556    0.1400
31     H31     4.0930   -4.5246   -8.0778 H        1 ZINC000085235556    0.1300
32     H32     2.3514   -4.1871   -8.2236 H        1 ZINC000085235556    0.1300
33     H33     2.1874   -5.0984   -4.0883 H        1 ZINC000085235556    0.1600
34     H34     0.0553   -3.8071    0.1217 H        1 ZINC000085235556    0.1300
@<TRIPOS>BOND
1     1     2     1
2     1     23    1
3     1     24    1
4     1     25    1
5     2     21    ar
6     2     3     ar
7     3     4     ar
8     3     26    1
9     4     5     1
10    4     19    ar
11    5     6     1
12    6     7     2
13    6     8     2
14    6     9     1
15    9     18    ar
16    9     10    ar
17    10    11    ar
18    10    27    1
19    11    12    ar
20    11    28    1
21    12    13    ar
22    12    29    1
23    13    14    1
24    13    18    ar
25    14    15    1
26    14    16    2
27    14    17    2
28    15    30    1
29    15    31    1
30    15    32    1
31    18    33    1
32    19    20    ar
33    19    34    1
34    20    21    ar
35    21    22    1
@<TRIPOS>SUBSTRUCTURE
1   ZINC000085235556 1     RESIDUE    1   A     ZIN   1

@<TRIPOS>MOLECULE
ZINC000085235556
35    36    1     0     0
SMALL
USER_CHARGES
@<TRIPOS>ATOM
1      C1     -4.7307   -1.9795   -1.3817 C.3      1 ZINC000085235556   -0.1200
2      C2     -3.6288   -2.5748   -2.2199 C.ar     1 ZINC000085235556   -0.1000
3      C3     -2.3035   -2.4065   -1.8563 C.ar     1 ZINC000085235556   -0.0800
4      C4     -1.3187   -2.9752   -2.6613 C.ar     1 ZINC000085235556    0.1000
5      N5      0.0331   -2.8330   -2.3352 N.am     1 ZINC000085235556   -1.0500
6      S6      1.0393   -4.1473   -2.3836 S.o2     1 ZINC000085235556    2.6900
7      O7      0.8636   -4.7403   -3.6630 O.2      1 ZINC000085235556   -0.9300
8      O8      2.2997   -3.7059   -1.8981 O.2      1 ZINC000085235556   -0.9400
9      C9      0.4333   -5.3117   -1.2081 C.ar     1 ZINC000085235556   -0.7000
10     C10     0.7963   -5.2044    0.1211 C.ar     1 ZINC000085235556    0.0300
11     C11     0.3208   -6.1179    1.0435 C.ar     1 ZINC000085235556   -0.1500
12     C12    -0.5179   -7.1383    0.6364 C.ar     1 ZINC000085235556    0.0300
13     C13    -0.8818   -7.2451   -0.6932 C.ar     1 ZINC000085235556   -0.6800
14     S14    -1.9505   -8.5462   -1.2123 S.o2     1 ZINC000085235556    2.4900
15     C15    -3.6193   -7.8546   -1.0466 C.3      1 ZINC000085235556   -0.6500
16     O16    -1.6254   -8.7414   -2.5818 O.2      1 ZINC000085235556   -0.9200
17     O17    -1.7400   -9.5755   -0.2555 O.2      1 ZINC000085235556   -0.9300
18     C18    -0.4099   -6.3293   -1.6145 C.ar     1 ZINC000085235556    0.0800
19     C19    -1.6993   -3.6856   -3.7918 C.ar     1 ZINC000085235556    0.0900
20     N20    -2.9734   -3.8226   -4.1028 N.ar     1 ZINC000085235556   -0.4400
21     C21    -3.9302   -3.3011   -3.3591 C.ar     1 ZINC000085235556    0.1600
22     Cl22   -5.5891   -3.5176   -3.8226 Cl       1 ZINC000085235556   -0.0200
23     H23    -5.0360   -2.6971   -0.6202 H        1 ZINC000085235556    0.0800
24     H24    -4.3703   -1.0702   -0.9006 H        1 ZINC000085235556    0.0800
25     H25    -5.5827   -1.7406   -2.0182 H        1 ZINC000085235556    0.0800
26     H26    -2.0395   -1.8478   -0.9706 H        1 ZINC000085235556    0.1500
27     H27     0.3817   -1.9644   -2.0806 H        1 ZINC000085235556    0.4300
28     H28     1.4516   -4.4071    0.4393 H        1 ZINC000085235556    0.1500
29     H29     0.6050   -6.0345    2.0821 H        1 ZINC000085235556    0.1500
30     H30    -0.8888   -7.8524    1.3567 H        1 ZINC000085235556    0.1500
31     H31    -3.7123   -6.9737   -1.6818 H        1 ZINC000085235556    0.1300
32     H32    -4.3536   -8.6006   -1.3502 H        1 ZINC000085235556    0.1400
33     H33    -3.7947   -7.5738   -0.0081 H        1 ZINC000085235556    0.1300
34     H34    -0.6941   -6.4127   -2.6531 H        1 ZINC000085235556    0.1600
35     H35    -0.9442   -4.1303   -4.4230 H        1 ZINC000085235556    0.2000
@<TRIPOS>BOND
1     1     2     1
2     1     23    1
3     1     24    1
4     1     25    1
5     2     21    ar
6     2     3     ar
7     3     4     ar
8     3     26    1
9     4     5     1
10    4     19    ar
11    5     6     am
12    5     27    1
13    6     7     2
14    6     8     2
15    6     9     1
16    9     18    ar
17    9     10    ar
18    10    11    ar
19    10    28    1
20    11    12    ar
21    11    29    1
22    12    13    ar
23    12    30    1
24    13    14    1
25    13    18    ar
26    14    15    1
27    14    16    2
28    14    17    2
29    15    31    1
30    15    32    1
31    15    33    1
32    18    34    1
33    19    20    ar
34    19    35    1
35    20    21    ar
36    21    22    1
@<TRIPOS>SUBSTRUCTURE
1   ZINC000085235556 1     RESIDUE    1   A     ZIN   1
@<TRIPOS>MOLECULE
ZINC000091304834
41    44    1     0     0
SMALL
USER_CHARGES
@<TRIPOS>ATOM
1      O1      0.0021   -0.0041    0.0020 O.co2    1 ZINC000091304834   -0.6900
2      C2     -0.0145    1.2150    0.0087 C.2      1 ZINC000091304834    0.5000
3      O3      1.0330    1.8389    0.0021 O.co2    1 ZINC000091304834   -0.6900
4      C4     -1.3296    1.9507    0.0190 C.3      1 ZINC000091304834   -0.1600
5      H5     -2.1292    1.2915    0.3570 H        1 ZINC000091304834    0.0800
6      C6     -1.6472    2.5019   -1.3878 C.3      1 ZINC000091304834    0.1200
7      N7     -2.2851    3.8158   -1.1393 N.am     1 ZINC000091304834   -0.6200
8      C8     -3.3317    4.3627   -1.7888 C.2      1 ZINC000091304834    0.5300
9      O9     -3.7419    5.4570   -1.4645 O.2      1 ZINC000091304834   -0.5400
10     C10    -3.9922    3.6146   -2.9180 C.3      1 ZINC000091304834   -0.0800
11     C11    -5.1269    4.4383   -3.4703 C.2      1 ZINC000091304834   -0.0800
12     C12    -6.3715    4.3533   -2.9980 C.2      1 ZINC000091304834   -0.2000
13     S13    -7.4153    5.4574   -3.8840 S.3      1 ZINC000091304834    0.0900
14     C14    -6.0628    5.9881   -4.8753 C.2      1 ZINC000091304834   -0.2100
15     C15    -4.9554    5.3447   -4.5024 C.2      1 ZINC000091304834   -0.1200
16     C16    -1.5114    4.3919   -0.0149 C.3      1 ZINC000091304834    0.1200
17     C17    -1.2409    3.1953    0.9264 C.3      1 ZINC000091304834   -0.0500
18     H18    -0.2458    3.2748    1.3640 H        1 ZINC000091304834    0.1100
19     C19    -2.2857    3.1352    2.0107 C.ar     1 ZINC000091304834   -0.0500
20     C20    -3.6209    3.0115    1.6757 C.ar     1 ZINC000091304834   -0.1000
21     C21    -4.5833    2.9558    2.6671 C.ar     1 ZINC000091304834   -0.1000
22     C22    -4.2109    3.0245    3.9994 C.ar     1 ZINC000091304834    0.0200
23     O23    -4.9476    2.9935    5.1480 O.3      1 ZINC000091304834   -0.3100
24     C24    -4.0103    2.6893    6.1979 C.3      1 ZINC000091304834    0.2100
25     O25    -2.7592    3.1963    5.6971 O.3      1 ZINC000091304834   -0.3100
26     C26    -2.8651    3.1492    4.3370 C.ar     1 ZINC000091304834    0.0300
27     C27    -1.9060    3.1981    3.3389 C.ar     1 ZINC000091304834   -0.0900
28     H28    -0.7298    2.6275   -1.9628 H        1 ZINC000091304834    0.0800
29     H29    -2.3361    1.8377   -1.9097 H        1 ZINC000091304834    0.0700
30     H30    -3.2624    3.4271   -3.7055 H        1 ZINC000091304834    0.1000
31     H31    -4.3791    2.6653   -2.5476 H        1 ZINC000091304834    0.1000
32     H32    -6.6896    3.7053   -2.1947 H        1 ZINC000091304834    0.1600
33     H33    -6.1193    6.7255   -5.6623 H        1 ZINC000091304834    0.1600
34     H34    -3.9990    5.5125   -4.9753 H        1 ZINC000091304834    0.1400
35     H35    -0.5728    4.8127   -0.3755 H        1 ZINC000091304834    0.0800
36     H36    -2.0978    5.1536    0.4990 H        1 ZINC000091304834    0.0800
37     H37    -3.9132    2.9585    0.6374 H        1 ZINC000091304834    0.1300
38     H38    -5.6259    2.8590    2.4024 H        1 ZINC000091304834    0.1300
39     H39    -4.2889    3.1997    7.1198 H        1 ZINC000091304834    0.1300
40     H40    -3.9507    1.6127    6.3580 H        1 ZINC000091304834    0.0800
41     H41    -0.8615    3.2888    3.5980 H        1 ZINC000091304834    0.1400
@<TRIPOS>BOND
1     1     2     ar
2     2     3     ar
3     2     4     1
4     4     5     1
5     4     17    1
6     4     6     1
7     6     7     1
8     6     28    1
9     6     29    1
10    7     8     am
11    7     16    1
12    8     9     2
13    8     10    1
14    10    11    1
15    10    30    1
16    10    31    1
17    11    15    1
18    11    12    2
19    12    13    1
20    12    32    1
21    13    14    1
22    14    15    2
23    14    33    1
24    15    34    1
25    16    17    1
26    16    35    1
27    16    36    1
28    17    18    1
29    17    19    1
30    19    27    ar
31    19    20    ar
32    20    21    ar
33    20    37    1
34    21    22    ar
35    21    38    1
36    22    26    ar
37    22    23    1
38    23    24    1
39    24    25    1
40    24    39    1
41    24    40    1
42    25    26    1
43    26    27    ar
44    27    41    1
@<TRIPOS>SUBSTRUCTURE
1   ZINC000091304834 1     RESIDUE    1   A     ZIN   1
@<TRIPOS>MOLECULE
ZINC000092704420
49    52    1     0     0
SMALL
USER_CHARGES
@<TRIPOS>ATOM
1      C1     -0.0184    1.5028    0.0103 C.3      1 ZINC000092704420   -0.1100
2      C2      0.0021   -0.0041    0.0020 C.ar     1 ZINC000092704420    0.1400
3      C3      0.0056   -0.6792   -1.2040 C.ar     1 ZINC000092704420   -0.1200
4      C4      0.0249   -2.0649   -1.2036 C.ar     1 ZINC000092704420   -0.0900
5      C5      0.0401   -2.7254    0.0205 C.ar     1 ZINC000092704420    0.0800
6      O6      0.0597   -4.0834    0.0707 O.3      1 ZINC000092704420   -0.4800
7      C7      0.0354   -1.9780    1.1895 C.ar     1 ZINC000092704420    0.0300
8      C8      0.0521   -2.6795    2.5231 C.3      1 ZINC000092704420    0.0600
9      N9      1.4424   -2.8877    2.9494 N.4      1 ZINC000092704420   -0.3900
10     H10     1.9447   -3.3829    2.2279 H        1 ZINC000092704420    0.4200
11     C11     1.4614   -3.6765    4.1884 C.3      1 ZINC000092704420    0.0000
12     C12     2.9101   -3.9097    4.6226 C.3      1 ZINC000092704420    0.0200
13     N13     3.5691   -2.6135    4.8366 N.3      1 ZINC000092704420   -0.5000
14     C14     4.8633   -2.7845    5.2812 C.ar     1 ZINC000092704420    0.2000
15     C15     5.2810   -2.2704    6.5315 C.ar     1 ZINC000092704420   -0.0800
16     C16     4.3944   -1.5703    7.3618 C.ar     1 ZINC000092704420   -0.0800
17     C17     4.8306   -1.0891    8.5601 C.ar     1 ZINC000092704420   -0.1100
18     C18     6.1468   -1.2846    8.9696 C.ar     1 ZINC000092704420   -0.0800
19     C19     7.0329   -1.9604    8.1863 C.ar     1 ZINC000092704420   -0.1000
20     C20     6.6197   -2.4709    6.9448 C.ar     1 ZINC000092704420    0.1500
21     N21     7.4759   -3.1383    6.1592 N.ar     1 ZINC000092704420   -0.4500
22     C22     7.1172   -3.6238    4.9979 C.ar     1 ZINC000092704420    0.1800
23     C23     5.8084   -3.4789    4.5116 C.ar     1 ZINC000092704420   -0.1200
24     C24     5.4458   -4.0212    3.2368 C.1      1 ZINC000092704420    0.2500
25     N25     5.1582   -4.4514    2.2255 N.1      1 ZINC000092704420   -0.4000
26     C26     3.5358   -1.8024    3.6114 C.3      1 ZINC000092704420    0.0200
27     C27     2.0818   -1.5866    3.1858 C.3      1 ZINC000092704420    0.0000
28     N28     0.0218   -0.6607    1.1455 N.ar     1 ZINC000092704420   -0.4500
29     H29     1.0042    1.8801    0.0026 H        1 ZINC000092704420    0.0900
30     H30    -0.5455    1.8639   -0.8728 H        1 ZINC000092704420    0.0900
31     H31    -0.5286    1.8543    0.9071 H        1 ZINC000092704420    0.0900
32     H32    -0.0069   -0.1333   -2.1357 H        1 ZINC000092704420    0.1600
33     H33     0.0277   -2.6184   -2.1309 H        1 ZINC000092704420    0.1600
34     H34     0.9486   -4.4638    0.0811 H        1 ZINC000092704420    0.4000
35     H35    -0.4667   -2.0684    3.2617 H        1 ZINC000092704420    0.1500
36     H36    -0.4485   -3.6435    2.4329 H        1 ZINC000092704420    0.1500
37     H37     0.9299   -3.1359    4.9715 H        1 ZINC000092704420    0.1500
38     H38     0.9750   -4.6365    4.0153 H        1 ZINC000092704420    0.1500
39     H39     2.9241   -4.4823    5.5500 H        1 ZINC000092704420    0.1400
40     H40     3.4383   -4.4623    3.8456 H        1 ZINC000092704420    0.0700
41     H41     3.3714   -1.4128    7.0535 H        1 ZINC000092704420    0.1400
42     H42     4.1474   -0.5496    9.1993 H        1 ZINC000092704420    0.1400
43     H43     6.4704   -0.8940    9.9231 H        1 ZINC000092704420    0.1400
44     H44     8.0505   -2.1029    8.5189 H        1 ZINC000092704420    0.1500
45     H45     7.8449   -4.1540    4.4014 H        1 ZINC000092704420    0.1700
46     H46     4.0062   -0.8376    3.8011 H        1 ZINC000092704420    0.1300
47     H47     4.0742   -2.3203    2.8177 H        1 ZINC000092704420    0.0600
48     H48     2.0552   -0.9972    2.2693 H        1 ZINC000092704420    0.1400
49     H49     1.5473   -1.0567    3.9742 H        1 ZINC000092704420    0.1500
@<TRIPOS>BOND
1     1     2     1
2     1     29    1
3     1     30    1
4     1     31    1
5     2     28    ar
6     2     3     ar
7     3     4     ar
8     3     32    1
9     4     5     ar
10    4     33    1
11    5     6     1
12    5     7     ar
13    6     34    1
14    7     8     1
15    7     28    ar
16    8     9     1
17    8     35    1
18    8     36    1
19    9     10    1
20    9     27    1
21    9     11    1
22    11    12    1
23    11    37    1
24    11    38    1
25    12    13    1
26    12    39    1
27    12    40    1
28    13    14    1
29    13    26    1
30    14    23    ar
31    14    15    ar
32    15    20    ar
33    15    16    ar
34    16    17    ar
35    16    41    1
36    17    18    ar
37    17    42    1
38    18    19    ar
39    18    43    1
40    19    20    ar
41    19    44    1
42    20    21    ar
43    21    22    ar
44    22    23    ar
45    22    45    1
46    23    24    1
47    24    25    3
48    26    27    1
49    26    46    1
50    26    47    1
51    27    48    1
52    27    49    1
@<TRIPOS>SUBSTRUCTURE
1   ZINC000092704420 1     RESIDUE    1   A     ZIN   1

@<TRIPOS>MOLECULE
ZINC000092704420
48    51    1     0     0
SMALL
USER_CHARGES
@<TRIPOS>ATOM
1      C1     -0.0184    1.5028    0.0103 C.3      1 ZINC000092704420   -0.1100
2      C2      0.0021   -0.0041    0.0020 C.ar     1 ZINC000092704420    0.1200
3      C3      0.0056   -0.6792   -1.2040 C.ar     1 ZINC000092704420   -0.1600
4      C4      0.0249   -2.0649   -1.2036 C.ar     1 ZINC000092704420   -0.1000
5      C5      0.0401   -2.7254    0.0205 C.ar     1 ZINC000092704420    0.0500
6      O6      0.0597   -4.0834    0.0707 O.3      1 ZINC000092704420   -0.4900
7      C7      0.0354   -1.9780    1.1895 C.ar     1 ZINC000092704420    0.1200
8      C8      0.0521   -2.6795    2.5231 C.3      1 ZINC000092704420    0.1100
9      N9      1.4424   -2.8877    2.9494 N.3      1 ZINC000092704420   -0.5300
10     C10     2.2575   -3.4174    1.8473 C.3      1 ZINC000092704420    0.0500
11     C11     3.7117   -3.5448    2.3073 C.3      1 ZINC000092704420    0.0500
12     N12     3.7764   -4.4297    3.4788 N.3      1 ZINC000092704420   -0.5000
13     C13     5.0816   -4.6251    3.8790 C.ar     1 ZINC000092704420    0.2200
14     C14     5.6534   -5.9191    3.9021 C.ar     1 ZINC000092704420   -0.0900
15     C15     4.9140   -7.0470    3.5186 C.ar     1 ZINC000092704420   -0.0700
16     C16     5.4968   -8.2786    3.5527 C.ar     1 ZINC000092704420   -0.1200
17     C17     6.8181   -8.4302    3.9639 C.ar     1 ZINC000092704420   -0.0800
18     C18     7.5635   -7.3548    4.3426 C.ar     1 ZINC000092704420   -0.1000
19     C19     6.9970   -6.0698    4.3206 C.ar     1 ZINC000092704420    0.1500
20     N20     7.7131   -4.9989    4.6896 N.ar     1 ZINC000092704420   -0.4700
21     C21     7.2098   -3.7908    4.6789 C.ar     1 ZINC000092704420    0.1800
22     C22     5.8887   -3.5471    4.2714 C.ar     1 ZINC000092704420   -0.1300
23     C23     5.3660   -2.2139    4.2706 C.1      1 ZINC000092704420    0.2400
24     N24     4.9513   -1.1563    4.2699 N.1      1 ZINC000092704420   -0.3800
25     C25     2.9613   -3.9000    4.5810 C.3      1 ZINC000092704420    0.0500
26     C26     1.5071   -3.7726    4.1210 C.3      1 ZINC000092704420    0.0600
27     N27     0.0218   -0.6607    1.1455 N.ar     1 ZINC000092704420   -0.4500
28     H28     1.0042    1.8801    0.0026 H        1 ZINC000092704420    0.0800
29     H29    -0.5455    1.8639   -0.8728 H        1 ZINC000092704420    0.0800
30     H30    -0.5286    1.8543    0.9071 H        1 ZINC000092704420    0.0800
31     H31    -0.0069   -0.1333   -2.1357 H        1 ZINC000092704420    0.1400
32     H32     0.0277   -2.6184   -2.1309 H        1 ZINC000092704420    0.1400
33     H33     0.9486   -4.4638    0.0811 H        1 ZINC000092704420    0.3900
34     H34    -0.4667   -2.0684    3.2617 H        1 ZINC000092704420    0.1000
35     H35    -0.4485   -3.6435    2.4329 H        1 ZINC000092704420    0.0600
36     H36     1.8812   -4.3978    1.5553 H        1 ZINC000092704420    0.0500
37     H37     2.2035   -2.7385    0.9962 H        1 ZINC000092704420    0.0800
38     H38     4.3128   -3.9647    1.5008 H        1 ZINC000092704420    0.0900
39     H39     4.0965   -2.5603    2.5735 H        1 ZINC000092704420    0.0600
40     H40     3.8881   -6.9404    3.1984 H        1 ZINC000092704420    0.1400
41     H41     4.9267   -9.1471    3.2576 H        1 ZINC000092704420    0.1300
42     H42     7.2590   -9.4159    3.9833 H        1 ZINC000092704420    0.1300
43     H43     8.5871   -7.4900    4.6593 H        1 ZINC000092704420    0.1400
44     H44     7.8279   -2.9601    4.9859 H        1 ZINC000092704420    0.1700
45     H45     3.0154   -4.5788    5.4321 H        1 ZINC000092704420    0.0900
46     H46     3.3376   -2.9195    4.8729 H        1 ZINC000092704420    0.0600
47     H47     0.9061   -3.3527    4.9275 H        1 ZINC000092704420    0.0900
48     H48     1.1223   -4.7570    3.8548 H        1 ZINC000092704420    0.0500
@<TRIPOS>BOND
1     1     2     1
2     1     28    1
3     1     29    1
4     1     30    1
5     2     27    ar
6     2     3     ar
7     3     4     ar
8     3     31    1
9     4     5     ar
10    4     32    1
11    5     6     1
12    5     7     ar
13    6     33    1
14    7     8     1
15    7     27    ar
16    8     9     1
17    8     34    1
18    8     35    1
19    9     26    1
20    9     10    1
21    10    11    1
22    10    36    1
23    10    37    1
24    11    12    1
25    11    38    1
26    11    39    1
27    12    13    1
28    12    25    1
29    13    22    ar
30    13    14    ar
31    14    19    ar
32    14    15    ar
33    15    16    ar
34    15    40    1
35    16    17    ar
36    16    41    1
37    17    18    ar
38    17    42    1
39    18    19    ar
40    18    43    1
41    19    20    ar
42    20    21    ar
43    21    22    ar
44    21    44    1
45    22    23    1
46    23    24    3
47    25    26    1
48    25    45    1
49    25    46    1
50    26    47    1
51    26    48    1
@<TRIPOS>SUBSTRUCTURE
1   ZINC000092704420 1     RESIDUE    1   A     ZIN   1

@<TRIPOS>MOLECULE
ZINC000092704420
47    50    1     0     0
SMALL
USER_CHARGES
@<TRIPOS>ATOM
1      C1     -0.0184    1.5028    0.0103 C.3      1 ZINC000092704420   -0.0700
2      C2      0.0021   -0.0041    0.0020 C.ar     1 ZINC000092704420   -0.0400
3      C3      0.0056   -0.6792   -1.2040 C.ar     1 ZINC000092704420   -0.1100
4      C4      0.0249   -2.0649   -1.2036 C.ar     1 ZINC000092704420   -0.2500
5      C5      0.0401   -2.7254    0.0205 C.ar     1 ZINC000092704420    0.2400
6      O6      0.0597   -4.0834    0.0707 O.3      1 ZINC000092704420   -0.7200
7      C7      0.0354   -1.9780    1.1895 C.ar     1 ZINC000092704420   -0.0300
8      C8      0.0521   -2.6795    2.5231 C.3      1 ZINC000092704420    0.1400
9      N9      1.4424   -2.8877    2.9494 N.3      1 ZINC000092704420   -0.5300
10     C10     2.2575   -3.4174    1.8473 C.3      1 ZINC000092704420    0.0700
11     C11     3.7117   -3.5448    2.3073 C.3      1 ZINC000092704420    0.0600
12     N12     3.7764   -4.4297    3.4788 N.3      1 ZINC000092704420   -0.5100
13     C13     5.0816   -4.6251    3.8790 C.ar     1 ZINC000092704420    0.2300
14     C14     5.6534   -5.9191    3.9021 C.ar     1 ZINC000092704420   -0.0900
15     C15     4.9140   -7.0470    3.5186 C.ar     1 ZINC000092704420   -0.0600
16     C16     5.4968   -8.2786    3.5527 C.ar     1 ZINC000092704420   -0.1300
17     C17     6.8181   -8.4302    3.9639 C.ar     1 ZINC000092704420   -0.0800
18     C18     7.5635   -7.3548    4.3426 C.ar     1 ZINC000092704420   -0.1100
19     C19     6.9970   -6.0698    4.3206 C.ar     1 ZINC000092704420    0.1500
20     N20     7.7131   -4.9989    4.6896 N.ar     1 ZINC000092704420   -0.4800
21     C21     7.2098   -3.7908    4.6789 C.ar     1 ZINC000092704420    0.1900
22     C22     5.8887   -3.5471    4.2714 C.ar     1 ZINC000092704420   -0.1300
23     C23     5.3660   -2.2139    4.2706 C.1      1 ZINC000092704420    0.2400
24     N24     4.9513   -1.1563    4.2699 N.1      1 ZINC000092704420   -0.3800
25     C25     2.9613   -3.9000    4.5810 C.3      1 ZINC000092704420    0.0600
26     C26     1.5071   -3.7726    4.1210 C.3      1 ZINC000092704420    0.0600
27     N27     0.0218   -0.6607    1.1455 N.ar     1 ZINC000092704420   -0.4300
28     H28     1.0042    1.8801    0.0026 H        1 ZINC000092704420    0.0500
29     H29    -0.5455    1.8639   -0.8728 H        1 ZINC000092704420    0.0500
30     H30    -0.5286    1.8543    0.9071 H        1 ZINC000092704420    0.0500
31     H31    -0.0069   -0.1333   -2.1357 H        1 ZINC000092704420    0.1000
32     H32     0.0277   -2.6184   -2.1309 H        1 ZINC000092704420    0.1000
33     H33    -0.4667   -2.0684    3.2617 H        1 ZINC000092704420    0.0700
34     H34    -0.4485   -3.6435    2.4329 H        1 ZINC000092704420    0.0500
35     H35     1.8812   -4.3978    1.5553 H        1 ZINC000092704420    0.0600
36     H36     2.2035   -2.7385    0.9962 H        1 ZINC000092704420    0.0800
37     H37     4.3128   -3.9647    1.5008 H        1 ZINC000092704420    0.0800
38     H38     4.0965   -2.5603    2.5735 H        1 ZINC000092704420    0.0500
39     H39     3.8881   -6.9404    3.1984 H        1 ZINC000092704420    0.1500
40     H40     4.9267   -9.1471    3.2576 H        1 ZINC000092704420    0.1300
41     H41     7.2590   -9.4159    3.9833 H        1 ZINC000092704420    0.1300
42     H42     8.5871   -7.4900    4.6593 H        1 ZINC000092704420    0.1400
43     H43     7.8279   -2.9601    4.9859 H        1 ZINC000092704420    0.1700
44     H44     3.0154   -4.5788    5.4321 H        1 ZINC000092704420    0.0800
45     H45     3.3376   -2.9195    4.8729 H        1 ZINC000092704420    0.0500
46     H46     0.9061   -3.3527    4.9275 H        1 ZINC000092704420    0.0800
47     H47     1.1223   -4.7570    3.8548 H        1 ZINC000092704420    0.0400
@<TRIPOS>BOND
1     1     2     1
2     1     28    1
3     1     29    1
4     1     30    1
5     2     27    ar
6     2     3     ar
7     3     4     ar
8     3     31    1
9     4     5     ar
10    4     32    1
11    5     6     1
12    5     7     ar
13    7     8     1
14    7     27    ar
15    8     9     1
16    8     33    1
17    8     34    1
18    9     26    1
19    9     10    1
20    10    11    1
21    10    35    1
22    10    36    1
23    11    12    1
24    11    37    1
25    11    38    1
26    12    13    1
27    12    25    1
28    13    22    ar
29    13    14    ar
30    14    19    ar
31    14    15    ar
32    15    16    ar
33    15    39    1
34    16    17    ar
35    16    40    1
36    17    18    ar
37    17    41    1
38    18    19    ar
39    18    42    1
40    19    20    ar
41    20    21    ar
42    21    22    ar
43    21    43    1
44    22    23    1
45    23    24    3
46    25    26    1
47    25    44    1
48    25    45    1
49    26    46    1
50    26    47    1
@<TRIPOS>SUBSTRUCTURE
1   ZINC000092704420 1     RESIDUE    1   A     ZIN   1
@<TRIPOS>MOLECULE
ZINC000096226113
  49   52    0    0    0
SMALL
USER_CHARGES
NO_NAME
@<TRIPOS>ATOM
    1 C1        0.1054     1.5155     0.0980 C.3    1 <0>      -0.1000
    2 C2        0.1109     0.0087     0.0790 C.2    1 <0>      -0.1200
    3 C3       -0.9763    -0.7642     0.0733 C.2    1 <0>      -0.1600
    4 C4       -0.7243    -2.1252     0.0547 C.2    1 <0>      -0.0600
    5 C5        0.5675    -2.4575     0.0453 C.2    1 <0>      -0.3000
    6 C6        1.1019    -3.8664     0.0242 C.3    1 <0>       0.0800
    7 N7        1.2703    -4.3055    -1.3676 N.4    1 <0>      -0.3900
    8 H8        1.8431    -3.6417    -1.8670 H      1 <0>       0.4300
    9 C9       -0.0536    -4.4114    -2.0202 C.3    1 <0>      -0.0100
   10 C10       0.0604    -5.6405    -2.9607 C.3    1 <0>      -0.1300
   11 C11       0.9640    -6.5723    -2.1388 C.3    1 <0>       0.0500
   12 C12       1.7157    -7.5637    -3.0342 C.3    1 <0>      -0.1200
   13 C13       1.7315    -8.8197    -2.1778 C.2    1 <0>       0.0700
   14 C14       2.5717   -10.0109    -2.4060 C.2    1 <0>       0.5800
   15 O15       3.3376   -10.0428    -3.3495 O.2    1 <0>      -0.4800
   16 N16       2.4899   -11.0636    -1.5685 N.am   1 <0>      -0.6400
   17 C17       3.2185   -12.2270    -1.8347 C.ar   1 <0>       0.0700
   18 C18       4.4741   -12.1532    -2.4326 C.ar   1 <0>      -0.0700
   19 C19       5.1573   -13.3336    -2.6763 C.ar   1 <0>      -0.1600
   20 C20       4.5755   -14.5362    -2.3212 C.ar   1 <0>       0.1000
   21 N21       3.3841   -14.5723    -1.7567 N.ar   1 <0>      -0.4600
   22 C22       2.7030   -13.4733    -1.5016 C.ar   1 <0>       0.1200
   23 C23       1.3453   -13.5704    -0.8548 C.3    1 <0>      -0.1100
   24 N24       0.8827    -8.6649    -1.2156 N.2    1 <0>      -0.2300
   25 O25       0.2190    -7.4126    -1.2618 O.3    1 <0>      -0.1600
   26 C26       1.9121    -5.6367    -1.3953 C.3    1 <0>      -0.0200
   27 S27       1.5516    -0.9998     0.0532 S.3    1 <0>       0.1500
   28 H28       1.1317     1.8827     0.0938 H      1 <0>       0.0800
   29 H29      -0.4174     1.8881    -0.7829 H      1 <0>       0.0900
   30 H30      -0.4020     1.8657     0.9969 H      1 <0>       0.0900
   31 H31      -1.9773    -0.3589     0.0828 H      1 <0>       0.1500
   32 H32      -1.5138    -2.8621     0.0486 H      1 <0>       0.1500
   33 H33       2.0649    -3.8975     0.5340 H      1 <0>       0.1400
   34 H34       0.4006    -4.5287     0.5317 H      1 <0>       0.1500
   35 H35      -0.8315    -4.5757    -1.2746 H      1 <0>       0.1400
   36 H36      -0.2647    -3.5111    -2.5972 H      1 <0>       0.1400
   37 H37      -0.9160    -6.0937    -3.1319 H      1 <0>       0.1300
   38 H38       0.5341    -5.3684    -3.9039 H      1 <0>       0.1200
   39 H39       1.1738    -7.7348    -3.9643 H      1 <0>       0.1400
   40 H40       2.7296    -7.2161    -3.2325 H      1 <0>       0.1300
   41 H41       1.9257   -11.0142    -0.7810 H      1 <0>       0.4200
   42 H42       4.9045   -11.1994    -2.7000 H      1 <0>       0.1500
   43 H43       6.1331   -13.3144    -3.1388 H      1 <0>       0.1400
   44 H44       5.1039   -15.4592    -2.5091 H      1 <0>       0.1700
   45 H45       1.4559   -13.5377     0.2290 H      1 <0>       0.0800
   46 H46       0.7263   -12.7350    -1.1822 H      1 <0>       0.0700
   47 H47       0.8715   -14.5086    -1.1436 H      1 <0>       0.0900
   48 H48       2.8651    -5.5770    -1.9210 H      1 <0>       0.1500
   49 H49       2.0691    -5.9964    -0.3784 H      1 <0>       0.1500
@<TRIPOS>BOND
   1    1    2 1
   2    1   28 1
   3    1   29 1
   4    1   30 1
   5    2   27 1
   6    2    3 2
   7    3    4 1
   8    3   31 1
   9    4    5 2
  10    4   32 1
  11    5    6 1
  12    5   27 1
  13    6    7 1
  14    6   33 1
  15    6   34 1
  16    7    8 1
  17    7   26 1
  18    7    9 1
  19    9   10 1
  20    9   35 1
  21    9   36 1
  22   10   11 1
  23   10   37 1
  24   10   38 1
  25   11   25 1
  26   11   12 1
  27   11   26 1
  28   12   13 1
  29   12   39 1
  30   12   40 1
  31   13   14 1
  32   13   24 2
  33   14   15 2
  34   14   16 am
  35   16   17 1
  36   16   41 1
  37   17   22 ar
  38   17   18 ar
  39   18   19 ar
  40   18   42 1
  41   19   20 ar
  42   19   43 1
  43   20   21 ar
  44   20   44 1
  45   21   22 ar
  46   22   23 1
  47   23   45 1
  48   23   46 1
  49   23   47 1
  50   24   25 1
  51   26   48 1
  52   26   49 1

@<TRIPOS>MOLECULE
ZINC000096226113
  48   51    0    0    0
SMALL
USER_CHARGES
NO_NAME
@<TRIPOS>ATOM
    1 C1        0.0935     1.4936     0.1082 C.3    1 <0>      -0.0800
    2 C2        0.1001    -0.0132     0.0881 C.2    1 <0>      -0.1800
    3 C3       -0.9864    -0.7869     0.0805 C.2    1 <0>      -0.1400
    4 C4       -0.7333    -2.1477     0.0612 C.2    1 <0>      -0.1300
    5 C5        0.5587    -2.4790     0.0532 C.2    1 <0>      -0.1800
    6 C6        1.0942    -3.8875     0.0318 C.3    1 <0>       0.1200
    7 N7        1.2648    -4.3254    -1.3601 N.3    1 <0>      -0.5200
    8 C8        0.0453    -4.0559    -2.1540 C.3    1 <0>       0.0400
    9 C9       -0.0350    -5.2228    -3.1738 C.3    1 <0>      -0.1200
   10 C10       0.5030    -6.3958    -2.3401 C.3    1 <0>       0.0500
   11 C11       1.0891    -7.4982    -3.2293 C.3    1 <0>      -0.1100
   12 C12       0.6893    -8.7595    -2.4805 C.2    1 <0>       0.0500
   13 C13       1.2298   -10.1121    -2.7154 C.2    1 <0>       0.5900
   14 O14       2.0729   -10.2893    -3.5731 O.2    1 <0>      -0.4900
   15 N15       0.7889   -11.1512    -1.9790 N.am   1 <0>      -0.6500
   16 C16       1.2336   -12.4465    -2.2609 C.ar   1 <0>       0.0800
   17 C17       2.5315   -12.6646    -2.7163 C.ar   1 <0>      -0.0700
   18 C18       2.9257   -13.9659    -2.9821 C.ar   1 <0>      -0.1600
   19 C19       2.0257   -14.9970    -2.7883 C.ar   1 <0>       0.0900
   20 N20       0.8029   -14.7572    -2.3562 N.ar   1 <0>      -0.4700
   21 C21       0.3891   -13.5356    -2.0855 C.ar   1 <0>       0.1200
   22 C22      -1.0186   -13.3164    -1.5942 C.3    1 <0>      -0.1100
   23 N23      -0.2052    -8.4434    -1.6030 N.2    1 <0>      -0.2400
   24 O24      -0.5277    -7.0626    -1.6167 O.3    1 <0>      -0.1600
   25 C25       1.5587    -5.7725    -1.4279 C.3    1 <0>       0.0300
   26 S26       1.5417    -1.0206     0.0635 S.3    1 <0>       0.1200
   27 H27       1.1195     1.8616     0.1056 H      1 <0>       0.0700
   28 H28      -0.4285     1.8665    -0.7731 H      1 <0>       0.0800
   29 H29      -0.4153     1.8428     1.0067 H      1 <0>       0.0800
   30 H30      -1.9877    -0.3823     0.0890 H      1 <0>       0.1400
   31 H31      -1.5223    -2.8852     0.0536 H      1 <0>       0.1400
   32 H32       2.0565    -3.9182     0.5428 H      1 <0>       0.0900
   33 H33       0.3928    -4.5507     0.5379 H      1 <0>       0.0600
   34 H34      -0.8338    -4.0548    -1.5095 H      1 <0>       0.0600
   35 H35       0.1354    -3.1028    -2.6751 H      1 <0>       0.0900
   36 H36      -1.0649    -5.4024    -3.4822 H      1 <0>       0.0900
   37 H37       0.6024    -5.0320    -4.0372 H      1 <0>       0.1000
   38 H38       0.6390    -7.4768    -4.2218 H      1 <0>       0.1200
   39 H39       2.1738    -7.4111    -3.2917 H      1 <0>       0.1200
   40 H40       0.1630   -11.0004    -1.2534 H      1 <0>       0.4200
   41 H41       3.2138   -11.8397    -2.8591 H      1 <0>       0.1500
   42 H42       3.9246   -14.1723    -3.3369 H      1 <0>       0.1400
   43 H43       2.3279   -16.0132    -2.9940 H      1 <0>       0.1600
   44 H44      -1.0360   -13.3695    -0.5056 H      1 <0>       0.0800
   45 H45      -1.3670   -12.3349    -1.9157 H      1 <0>       0.0700
   46 H46      -1.6711   -14.0864    -2.0059 H      1 <0>       0.0900
   47 H47       2.5529    -5.9316    -1.8455 H      1 <0>       0.1000
   48 H48       1.4975    -6.2122    -0.4324 H      1 <0>       0.0700
@<TRIPOS>BOND
   1    1    2 1
   2    1   27 1
   3    1   28 1
   4    1   29 1
   5    2   26 1
   6    2    3 2
   7    3    4 1
   8    3   30 1
   9    4    5 2
  10    4   31 1
  11    5    6 1
  12    5   26 1
  13    6    7 1
  14    6   32 1
  15    6   33 1
  16    7   25 1
  17    7    8 1
  18    8    9 1
  19    8   34 1
  20    8   35 1
  21    9   10 1
  22    9   36 1
  23    9   37 1
  24   10   24 1
  25   10   11 1
  26   10   25 1
  27   11   12 1
  28   11   38 1
  29   11   39 1
  30   12   13 1
  31   12   23 2
  32   13   14 2
  33   13   15 am
  34   15   16 1
  35   15   40 1
  36   16   21 ar
  37   16   17 ar
  38   17   18 ar
  39   17   41 1
  40   18   19 ar
  41   18   42 1
  42   19   20 ar
  43   19   43 1
  44   20   21 ar
  45   21   22 1
  46   22   44 1
  47   22   45 1
  48   22   46 1
  49   23   24 1
  50   25   47 1
  51   25   48 1

@<TRIPOS>MOLECULE
ZINC000096226113
  49   52    0    0    0
SMALL
USER_CHARGES
NO_NAME
@<TRIPOS>ATOM
    1 C1       -0.0890     1.4473     0.1393 C.3    1 <0>      -0.1000
    2 C2       -0.0586    -0.0592     0.1160 C.2    1 <0>      -0.1200
    3 C3       -1.1328    -0.8500     0.1119 C.2    1 <0>      -0.1600
    4 C4       -0.8583    -2.2065     0.0885 C.2    1 <0>      -0.0600
    5 C5        0.4388    -2.5174     0.0737 C.2    1 <0>      -0.3000
    6 C6        0.9965    -3.9171     0.0466 C.3    1 <0>       0.0900
    7 N7        1.1672    -4.3494    -1.3469 N.4    1 <0>      -0.3900
    8 H8        0.2994    -4.2480    -1.8517 H      1 <0>       0.4300
    9 C9        2.2376    -3.5534    -2.0028 C.3    1 <0>      -0.0100
   10 C10       2.6921    -4.4607    -3.1773 C.3    1 <0>      -0.1300
   11 C11       2.5866    -5.8667    -2.5741 C.3    1 <0>       0.0500
   12 C12       3.9617    -6.3927    -2.1394 C.3    1 <0>      -0.1200
   13 C13       3.8659    -7.8691    -2.4868 C.2    1 <0>       0.0600
   14 C14       4.7825    -8.9277    -2.0219 C.2    1 <0>       0.5900
   15 O15       5.7148    -8.6478    -1.2936 O.2    1 <0>      -0.4900
   16 N16       4.5862   -10.2050    -2.4047 N.am   1 <0>      -0.6400
   17 C17       5.5048   -11.1935    -2.0387 C.ar   1 <0>       0.0700
   18 C18       6.1615   -11.1288    -0.8122 C.ar   1 <0>      -0.0700
   19 C19       7.0628   -12.1318    -0.4946 C.ar   1 <0>      -0.1600
   20 C20       7.2794   -13.1558    -1.3976 C.ar   1 <0>       0.1000
   21 N21       6.6416   -13.1881    -2.5516 N.ar   1 <0>      -0.4600
   22 C22       5.7718   -12.2580    -2.8906 C.ar   1 <0>       0.1200
   23 C23       5.0702   -12.3422    -4.2217 C.3    1 <0>      -0.1100
   24 N24       2.8440    -8.0381    -3.2591 N.2    1 <0>      -0.2300
   25 O25       2.1569    -6.8298    -3.5365 O.3    1 <0>      -0.1500
   26 C26       1.6230    -5.7594    -1.3923 C.3    1 <0>      -0.0200
   27 S27       1.3986    -1.0435     0.0823 S.3    1 <0>       0.1400
   28 H28       0.9311     1.8315     0.1325 H      1 <0>       0.0800
   29 H29      -0.6210     1.8137    -0.7387 H      1 <0>       0.0900
   30 H30      -0.5990     1.7865     1.0409 H      1 <0>       0.0900
   31 H31      -2.1403    -0.4613     0.1261 H      1 <0>       0.1500
   32 H32      -1.6354    -2.9565     0.0832 H      1 <0>       0.1500
   33 H33       1.9616    -3.9336     0.5530 H      1 <0>       0.1400
   34 H34       0.3080    -4.5924     0.5548 H      1 <0>       0.1500
   35 H35       1.8400    -2.6102    -2.3776 H      1 <0>       0.1500
   36 H36       3.0625    -3.3765    -1.3126 H      1 <0>       0.1400
   37 H37       2.0215    -4.3544    -4.0301 H      1 <0>       0.1200
   38 H38       3.7203    -4.2383    -3.4624 H      1 <0>       0.1300
   39 H39       4.7583    -5.9115    -2.7067 H      1 <0>       0.1400
   40 H40       4.1089    -6.2549    -1.0682 H      1 <0>       0.1300
   41 H41       3.8076   -10.4384    -2.9341 H      1 <0>       0.4200
   42 H42       5.9731   -10.3165    -0.1258 H      1 <0>       0.1500
   43 H43       7.5905   -12.1138     0.4475 H      1 <0>       0.1400
   44 H44       7.9810   -13.9402    -1.1549 H      1 <0>       0.1700
   45 H45       4.1467   -12.9104    -4.1103 H      1 <0>       0.0800
   46 H46       4.8382   -11.3372    -4.5744 H      1 <0>       0.0700
   47 H47       5.7182   -12.8399    -4.9431 H      1 <0>       0.0900
   48 H48       2.1380    -6.0145    -0.4662 H      1 <0>       0.1500
   49 H49       0.7723    -6.4241    -1.5425 H      1 <0>       0.1500
@<TRIPOS>BOND
   1    1    2 1
   2    1   28 1
   3    1   29 1
   4    1   30 1
   5    2   27 1
   6    2    3 2
   7    3    4 1
   8    3   31 1
   9    4    5 2
  10    4   32 1
  11    5    6 1
  12    5   27 1
  13    6    7 1
  14    6   33 1
  15    6   34 1
  16    7    8 1
  17    7   26 1
  18    7    9 1
  19    9   10 1
  20    9   35 1
  21    9   36 1
  22   10   11 1
  23   10   37 1
  24   10   38 1
  25   11   25 1
  26   11   12 1
  27   11   26 1
  28   12   13 1
  29   12   39 1
  30   12   40 1
  31   13   14 1
  32   13   24 2
  33   14   15 2
  34   14   16 am
  35   16   17 1
  36   16   41 1
  37   17   22 ar
  38   17   18 ar
  39   18   19 ar
  40   18   42 1
  41   19   20 ar
  42   19   43 1
  43   20   21 ar
  44   20   44 1
  45   21   22 ar
  46   22   23 1
  47   23   45 1
  48   23   46 1
  49   23   47 1
  50   24   25 1
  51   26   48 1
  52   26   49 1
@<TRIPOS>MOLECULE
ZINC000033349969
  29   30    0    0    0
SMALL
USER_CHARGES
NO_NAME
@<TRIPOS>ATOM
    1 C1       -0.0541     1.9194    -0.2676 C.3    1 <0>      -0.1600
    2 C2        0.0093     0.3960    -0.1413 C.3    1 <0>       0.0800
    3 N3        0.6956    -0.1627    -1.3089 N.am   1 <0>      -0.5100
    4 C4        0.0084    -0.4990    -2.3877 C.2    1 <0>       0.5500
    5 O5       -1.1989    -0.3645    -2.4628 O.2    1 <0>      -0.4700
    6 C6        0.8112    -1.0459    -3.4875 C.2    1 <0>      -0.3400
    7 C7        0.3823    -1.4714    -4.7033 C.2    1 <0>       0.1800
    8 C8        1.3564    -1.8240    -5.7431 C.ar   1 <0>      -0.2400
    9 C9        2.6770    -1.3692    -5.6544 C.ar   1 <0>       0.0400
   10 C10       3.5861    -1.7048    -6.6352 C.ar   1 <0>      -0.2100
   11 Br11      5.3705    -1.0905    -6.5146 Br     1 <0>      -0.0500
   12 C12       3.1981    -2.4906    -7.7089 C.ar   1 <0>       0.0600
   13 C13       1.8972    -2.9466    -7.8089 C.ar   1 <0>      -0.1800
   14 N14       1.4950    -3.7856    -8.9601 N.pl3  1 <0>       0.0600
   15 O15       2.3102    -4.0736    -9.8181 O.2    1 <0>      -0.2400
   16 O16       0.3489    -4.1880    -9.0495 O.2    1 <0>      -0.1400
   17 C17       0.9707    -2.6251    -6.8309 C.ar   1 <0>       0.3400
   18 O18      -0.3071    -3.0726    -6.9287 O.3    1 <0>      -0.6000
   19 S19       2.4721    -1.0225    -2.8624 S.3    1 <0>       0.1300
   20 C20       2.0228    -0.3313    -1.2936 C.2    1 <0>       0.2600
   21 S21       3.0833     0.0426    -0.0027 S.2    1 <0>      -0.4300
   22 H22       0.9574     2.3220    -0.3216 H      1 <0>       0.0700
   23 H23      -0.6002     2.1865    -1.1724 H      1 <0>       0.0600
   24 H24      -0.5648     2.3351     0.6010 H      1 <0>       0.0800
   25 H25       0.5554     0.1288     0.7634 H      1 <0>       0.1100
   26 H26      -1.0022    -0.0066    -0.0874 H      1 <0>       0.1000
   27 H27      -0.6757    -1.5504    -4.9055 H      1 <0>       0.1600
   28 H28       2.9832    -0.7563    -4.8195 H      1 <0>       0.1400
   29 H29       3.9170    -2.7481    -8.4726 H      1 <0>       0.1500
@<TRIPOS>BOND
   1    1    2 1
   2    1   22 1
   3    1   23 1
   4    1   24 1
   5    2    3 1
   6    2   25 1
   7    2   26 1
   8    3   20 am
   9    3    4 am
  10    4    5 2
  11    4    6 1
  12    6    7 2
  13    6   19 1
  14    7    8 1
  15    7   27 1
  16    8   17 ar
  17    8    9 ar
  18    9   10 ar
  19    9   28 1
  20   10   11 1
  21   10   12 ar
  22   12   13 ar
  23   12   29 1
  24   13   14 1
  25   13   17 ar
  26   14   15 2
  27   14   16 2
  28   17   18 1
  29   19   20 1
  30   20   21 2

@<TRIPOS>MOLECULE
ZINC000033349969
  30   31    0    0    0
SMALL
USER_CHARGES
NO_NAME
@<TRIPOS>ATOM
    1 C1       -0.0541     1.9194    -0.2676 C.3    1 <0>      -0.1700
    2 C2        0.0093     0.3959    -0.1413 C.3    1 <0>       0.0800
    3 N3        0.6956    -0.1627    -1.3089 N.am   1 <0>      -0.5100
    4 C4        0.0084    -0.4990    -2.3877 C.2    1 <0>       0.5500
    5 O5       -1.1989    -0.3645    -2.4628 O.2    1 <0>      -0.4400
    6 C6        0.8112    -1.0459    -3.4875 C.2    1 <0>      -0.2500
    7 C7        0.3823    -1.4714    -4.7033 C.2    1 <0>       0.0800
    8 C8        1.3564    -1.8240    -5.7431 C.ar   1 <0>      -0.1200
    9 C9        2.6770    -1.3692    -5.6544 C.ar   1 <0>      -0.0100
   10 C10       3.5861    -1.7048    -6.6352 C.ar   1 <0>      -0.1000
   11 Br11      5.3705    -1.0905    -6.5146 Br     1 <0>       0.0100
   12 C12       3.1981    -2.4906    -7.7089 C.ar   1 <0>       0.0100
   13 C13       1.8972    -2.9466    -7.8089 C.ar   1 <0>      -0.0700
   14 N14       1.4950    -3.7856    -8.9601 N.pl3  1 <0>       0.0300
   15 O15       2.3102    -4.0736    -9.8181 O.2    1 <0>      -0.1500
   16 O16       0.3489    -4.1880    -9.0495 O.2    1 <0>      -0.1200
   17 C17       0.9707    -2.6251    -6.8309 C.ar   1 <0>       0.2400
   18 O18      -0.3071    -3.0726    -6.9287 O.3    1 <0>      -0.4600
   19 S19       2.4721    -1.0226    -2.8624 S.3    1 <0>       0.1000
   20 C20       2.0228    -0.3313    -1.2936 C.2    1 <0>       0.2500
   21 S21       3.0833     0.0426    -0.0027 S.2    1 <0>      -0.3300
   22 H22       0.9574     2.3219    -0.3216 H      1 <0>       0.0700
   23 H23      -0.6002     2.1865    -1.1724 H      1 <0>       0.0600
   24 H24      -0.5648     2.3351     0.6010 H      1 <0>       0.0900
   25 H25       0.5554     0.1288     0.7634 H      1 <0>       0.1200
   26 H26      -1.0022    -0.0066    -0.0874 H      1 <0>       0.1100
   27 H27      -0.6757    -1.5504    -4.9055 H      1 <0>       0.1800
   28 H28       2.9832    -0.7563    -4.8195 H      1 <0>       0.1600
   29 H29       3.9170    -2.7481    -8.4726 H      1 <0>       0.1800
   30 H30      -0.4565    -3.9306    -6.5085 H      1 <0>       0.4200
@<TRIPOS>BOND
   1    1    2 1
   2    1   22 1
   3    1   23 1
   4    1   24 1
   5    2    3 1
   6    2   25 1
   7    2   26 1
   8    3   20 am
   9    3    4 am
  10    4    5 2
  11    4    6 1
  12    6    7 2
  13    6   19 1
  14    7    8 1
  15    7   27 1
  16    8   17 ar
  17    8    9 ar
  18    9   10 ar
  19    9   28 1
  20   10   11 1
  21   10   12 ar
  22   12   13 ar
  23   12   29 1
  24   13   14 1
  25   13   17 ar
  26   14   15 2
  27   14   16 2
  28   17   18 1
  29   18   30 1
  30   19   20 1
  31   20   21 2
@<TRIPOS>MOLECULE
ZINC000065098592
  31   33    0    0    0
SMALL
NO_CHARGES
@<TRIPOS>ATOM
   1 C1            -0.0184     1.5028     0.0103 C.3     
   2 C2             0.0021    -0.0041     0.0020 C.2     
   3 N3             0.0081    -0.7672    -1.0536 N.2     
   4 N4             0.0264    -2.0020    -0.6926 N.2     
   5 C5             0.0326    -2.0697     0.6190 C.2     
   6 C6             0.0527    -3.3020     1.4328 C.2     
   7 C7             0.0527    -3.2891     2.7797 C.2     
   8 S8             0.0775    -4.8813     3.3926 S.3     
   9 C9             0.0878    -5.5616     1.7724 C.2     
  10 S10            0.1144    -7.2828     1.3965 S.o2    
  11 O11           -0.4191    -7.9498     2.5322 O.2     
  12 O12           -0.4288    -7.4167     0.0903 O.2     
  13 N13            1.7034    -7.7370     1.2910 N.pl3   
  14 C14            2.0335    -9.0650     0.9998 C.ar    
  15 C15            1.0304   -10.0016     0.7935 C.ar    
  16 C16            1.3589   -11.3128     0.5060 C.ar    
  17 C17            2.6863   -11.6934     0.4240 C.ar    
  18 Cl18           3.0941   -13.3418     0.0631 Cl      
  19 C19            3.6901   -10.7625     0.6286 C.ar    
  20 C20            3.3678    -9.4481     0.9109 C.ar    
  21 F21            4.3473    -8.5393     1.1106 F       
  22 C22            0.0673    -4.5819     0.8717 C.2     
  23 O23            0.0232    -0.8042     1.0837 O.3     
  24 H24            1.0042     1.8801     0.0026 H       
  25 H25           -0.5455     1.8639    -0.8728 H       
  26 H26           -0.5286     1.8543     0.9071 H       
  27 H27            0.0393    -2.3960     3.3867 H       
  28 H28           -0.0063    -9.7060     0.8579 H       
  29 H29            0.5782   -12.0415     0.3454 H       
  30 H30            4.7256   -11.0623     0.5640 H       
  31 H31            0.0685    -4.7593    -0.1936 H       
@<TRIPOS>BOND
   1    1    2 1
   2    1   24 1
   3    1   25 1
   4    1   26 1
   5    2   23 1
   6    2    3 2
   7    3    4 1
   8    4    5 2
   9    5    6 1
  10    5   23 1
  11    6   22 1
  12    6    7 2
  13    7    8 1
  14    7   27 1
  15    8    9 1
  16    9   10 1
  17    9   22 2
  18   10   11 2
  19   10   12 2
  20   10   13 1
  21   13   14 1
  22   14   20 ar
  23   14   15 ar
  24   15   16 ar
  25   15   28 1
  26   16   17 ar
  27   16   29 1
  28   17   18 1
  29   17   19 ar
  30   19   20 ar
  31   19   30 1
  32   20   21 1
  33   22   31 1

@<TRIPOS>MOLECULE
ZINC000065098592
  32   34    0    0    0
SMALL
NO_CHARGES
@<TRIPOS>ATOM
   1 C1            -0.5993     1.4227     0.4108 C.3     
   2 C2            -0.4860    -0.0783     0.3396 C.2     
   3 N3            -0.4447    -0.7957    -0.7469 N.2     
   4 N4            -0.3463    -2.0407    -0.4377 N.2     
   5 C5            -0.3212    -2.1616     0.8699 C.2     
   6 C6            -0.2160    -3.4226     1.6315 C.2     
   7 C7            -0.2017    -3.4649     2.9776 C.2     
   8 S8            -0.0719    -5.0763     3.5236 S.3     
   9 C9            -0.0378    -5.6876     1.8764 C.2     
  10 S10            0.0907    -7.3870     1.4291 S.o2    
  11 O11           -0.3878    -8.1319     2.5406 O.2     
  12 O12           -0.4578    -7.5008     0.1231 O.2     
  13 N13            1.7034    -7.7370     1.2910 N.am    
  14 C14            2.5493    -7.5846     2.3950 C.ar    
  15 C15            2.0847    -7.8688     3.6714 C.ar    
  16 C16            2.9221    -7.7175     4.7603 C.ar    
  17 C17            4.2228    -7.2826     4.5800 C.ar    
  18 Cl18           5.2708    -7.0934     5.9510 Cl      
  19 C19            4.6906    -6.9983     3.3086 C.ar    
  20 C20            3.8595    -7.1533     2.2148 C.ar    
  21 F21            4.3157    -6.8759     0.9738 F       
  22 C22           -0.1288    -4.6750     1.0175 C.2     
  23 O23           -0.4034    -0.9192     1.3869 O.3     
  24 H24            0.3980     1.8628     0.4099 H       
  25 H25           -1.1576     1.7863    -0.4519 H       
  26 H26           -1.1201     1.7049     1.3258 H       
  27 H27           -0.2634    -2.6000     3.6214 H       
  28 H28            2.0616    -8.0476     0.4448 H       
  29 H29            1.0692    -8.2078     3.8137 H       
  30 H30            2.5603    -7.9388     5.7536 H       
  31 H31            5.7065    -6.6589     3.1707 H       
  32 H32           -0.1286    -4.8083    -0.0542 H       
@<TRIPOS>BOND
   1    1    2 1
   2    1   24 1
   3    1   25 1
   4    1   26 1
   5    2   23 1
   6    2    3 2
   7    3    4 1
   8    4    5 2
   9    5    6 1
  10    5   23 1
  11    6   22 1
  12    6    7 2
  13    7    8 1
  14    7   27 1
  15    8    9 1
  16    9   10 1
  17    9   22 2
  18   10   11 2
  19   10   12 2
  20   10   13 am
  21   13   14 1
  22   13   28 1
  23   14   20 ar
  24   14   15 ar
  25   15   16 ar
  26   15   29 1
  27   16   17 ar
  28   16   30 1
  29   17   18 1
  30   17   19 ar
  31   19   20 ar
  32   19   31 1
  33   20   21 1
  34   22   32 1
@<TRIPOS>MOLECULE
ZINC000000141387
29    30    1     0     0
SMALL
USER_CHARGES
@<TRIPOS>ATOM
1      C1      0.8474    1.1899   -0.1460 C.3      1 ZINC000000141387   -0.0900
2      C2      0.4779   -0.2661   -0.0260 C.2      1 ZINC000000141387    0.0000
3      N3      0.3545   -1.1093   -1.0192 N.2      1 ZINC000000141387   -0.3100
4      N4      0.0013   -2.3594   -0.4954 N.pl3    1 ZINC000000141387   -0.3900
5      C5     -0.2343   -3.5825   -1.2667 C.3      1 ZINC000000141387    0.1200
6      C6     -0.0837   -2.2364    0.8560 C.2      1 ZINC000000141387   -0.0100
7      C7     -0.4363   -3.3314    1.8296 C.3      1 ZINC000000141387   -0.0500
8      C8      0.2134   -0.9498    1.1693 C.2      1 ZINC000000141387    0.1200
9      N9      0.2415   -0.3972    2.4640 N.pl3    1 ZINC000000141387   -1.0700
10     S10     1.4506    0.6506    2.8910 S.o2     1 ZINC000000141387    2.5900
11     O11     2.6750   -0.0155    2.6147 O.2      1 ZINC000000141387   -1.0400
12     O12     1.1071    1.9100    2.3295 O.2      1 ZINC000000141387   -1.0100
13     C13     1.3756    0.8487    4.6402 C.2      1 ZINC000000141387   -0.6100
14     C14     0.3334    1.4114    5.2552 C.2      1 ZINC000000141387   -0.0300
15     Cl15   -1.0839    2.0254    4.4627 Cl       1 ZINC000000141387    0.0300
16     S16     0.6147    1.4353    6.9911 S.3      1 ZINC000000141387    0.1800
17     C17     2.1777    0.6572    6.7794 C.2      1 ZINC000000141387   -0.1600
18     Cl18    3.2718    0.2443    8.0625 Cl       1 ZINC000000141387   -0.0100
19     C19     2.3914    0.4270    5.4824 C.2      1 ZINC000000141387   -0.0400
20     H20     1.9173    1.3086    0.0257 H        1 ZINC000000141387    0.0600
21     H21     0.5980    1.5470   -1.1452 H        1 ZINC000000141387    0.0600
22     H22     0.2943    1.7674    0.5948 H        1 ZINC000000141387    0.1100
23     H23     0.7017   -4.1309   -1.3731 H        1 ZINC000000141387    0.0600
24     H24    -0.9630   -4.2049   -0.7473 H        1 ZINC000000141387    0.0700
25     H25    -0.6169   -3.3217   -2.2535 H        1 ZINC000000141387    0.0700
26     H26     0.4731   -3.8405    2.1488 H        1 ZINC000000141387    0.0500
27     H27    -0.9345   -2.8994    2.6974 H        1 ZINC000000141387    0.0800
28     H28    -1.1024   -4.0463    1.3466 H        1 ZINC000000141387    0.0400
29     H29     3.2914   -0.0449    5.1165 H        1 ZINC000000141387    0.1700
@<TRIPOS>BOND
1     1     2     1
2     1     20    1
3     1     21    1
4     1     22    1
5     2     8     1
6     2     3     2
7     3     4     1
8     4     5     1
9     4     6     1
10    5     23    1
11    5     24    1
12    5     25    1
13    6     7     1
14    6     8     2
15    7     26    1
16    7     27    1
17    7     28    1
18    8     9     1
19    9     10    1
20    10    11    2
21    10    12    2
22    10    13    1
23    13    19    1
24    13    14    2
25    14    15    1
26    14    16    1
27    16    17    1
28    17    18    1
29    17    19    2
30    19    29    1
@<TRIPOS>SUBSTRUCTURE
1   ZINC000000141387 1     RESIDUE    1   A     ZIN   1

@<TRIPOS>MOLECULE
ZINC000000141387
30    31    1     0     0
SMALL
USER_CHARGES
@<TRIPOS>ATOM
1      C1     -0.1971    1.5169    0.0468 C.3      1 ZINC000000141387   -0.0800
2      C2     -0.0413    0.0187   -0.0010 C.2      1 ZINC000000141387    0.0900
3      N3     -0.0653   -0.7196   -1.0812 N.2      1 ZINC000000141387   -0.2800
4      N4      0.1137   -2.0571   -0.7054 N.pl3    1 ZINC000000141387   -0.3700
5      C5      0.1513   -3.2094   -1.6093 C.3      1 ZINC000000141387    0.1000
6      C6      0.2469   -2.0960    0.6472 C.2      1 ZINC000000141387    0.1100
7      C7      0.4597   -3.3298    1.4860 C.3      1 ZINC000000141387   -0.0900
8      C8      0.1601   -0.8210    1.1037 C.2      1 ZINC000000141387   -0.0300
9      N9      0.2470   -0.4145    2.4490 N.am     1 ZINC000000141387   -1.0200
10     S10     1.6277   -0.7079    3.3151 S.o2     1 ZINC000000141387    2.7000
11     O11     1.3914   -0.2138    4.6263 O.2      1 ZINC000000141387   -0.9500
12     O12     1.9916   -2.0549    3.0459 O.2      1 ZINC000000141387   -0.9300
13     C13     2.8994    0.2983    2.6258 C.2      1 ZINC000000141387   -0.6700
14     C14     3.4062    0.0826    1.4103 C.2      1 ZINC000000141387   -0.0400
15     Cl15    2.9150   -1.1863    0.3321 Cl       1 ZINC000000141387    0.0400
16     S16     4.6474    1.2805    1.0671 S.3      1 ZINC000000141387    0.2600
17     C17     4.4021    2.0297    2.6393 C.2      1 ZINC000000141387   -0.1600
18     Cl18    5.2670    3.4122    3.2347 Cl       1 ZINC000000141387    0.0100
19     C19     3.4452    1.3770    3.3021 C.2      1 ZINC000000141387   -0.0500
20     H20     0.7873    1.9848    0.0455 H        1 ZINC000000141387    0.0800
21     H21    -0.7597    1.8517   -0.8248 H        1 ZINC000000141387    0.0800
22     H22    -0.7318    1.7978    0.9542 H        1 ZINC000000141387    0.0800
23     H23     1.1779   -3.3859   -1.9305 H        1 ZINC000000141387    0.0700
24     H24    -0.2235   -4.0912   -1.0897 H        1 ZINC000000141387    0.0900
25     H25    -0.4724   -3.0084   -2.4803 H        1 ZINC000000141387    0.0900
26     H26     1.5282   -3.5180    1.5909 H        1 ZINC000000141387    0.1100
27     H27     0.0188   -3.1796    2.4714 H        1 ZINC000000141387    0.0900
28     H28    -0.0139   -4.1841    1.0023 H        1 ZINC000000141387    0.0700
29     H29    -0.5018    0.0373    2.8685 H        1 ZINC000000141387    0.4200
30     H30     3.1263    1.6631    4.2935 H        1 ZINC000000141387    0.1700
@<TRIPOS>BOND
1     1     2     1
2     1     20    1
3     1     21    1
4     1     22    1
5     2     8     1
6     2     3     2
7     3     4     1
8     4     5     1
9     4     6     1
10    5     23    1
11    5     24    1
12    5     25    1
13    6     7     1
14    6     8     2
15    7     26    1
16    7     27    1
17    7     28    1
18    8     9     1
19    9     10    am
20    9     29    1
21    10    11    2
22    10    12    2
23    10    13    1
24    13    19    1
25    13    14    2
26    14    15    1
27    14    16    1
28    16    17    1
29    17    18    1
30    17    19    2
31    19    30    1
@<TRIPOS>SUBSTRUCTURE
1   ZINC000000141387 1     RESIDUE    1   A     ZIN   1
@<TRIPOS>MOLECULE
ZINC000016130841
  28   29    0    0    0
SMALL
USER_CHARGES
NO_NAME
@<TRIPOS>ATOM
    1 C1       -0.0184     1.5028     0.0103 C.3    1 <0>      -0.1000
    2 C2        0.0021    -0.0041     0.0020 C.2    1 <0>       0.1000
    3 N3        0.0084    -0.7781    -1.0446 N.2    1 <0>      -0.3800
    4 O4        0.0260    -1.9466    -0.7340 O.3    1 <0>       0.0900
    5 C5        0.0337    -2.1026     0.5973 C.2    1 <0>       0.0900
    6 C6        0.0555    -3.4063     1.3528 C.3    1 <0>      -0.0900
    7 C7        0.0244    -0.8570     1.1293 C.2    1 <0>      -0.7300
    8 S8        0.0281    -0.4046     2.8322 S.o2   1 <0>       2.6400
    9 O9       -0.5285     0.9011     2.9018 O.2    1 <0>      -1.0200
   10 O10      -0.5024    -1.5145     3.5435 O.2    1 <0>      -1.0200
   11 N11       1.6108    -0.2636     3.2985 N.pl3  1 <0>      -1.0900
   12 C12       1.9227     0.0891     4.6135 C.ar   1 <0>       0.2800
   13 C13       0.9066     0.3164     5.5328 C.ar   1 <0>      -0.2500
   14 C14       1.2182     0.6651     6.8325 C.ar   1 <0>      -0.0600
   15 C15       2.5398     0.7885     7.2190 C.ar   1 <0>      -0.1900
   16 C16       3.5547     0.5633     6.3059 C.ar   1 <0>      -0.0400
   17 I17       5.5556     0.7525     6.8973 I      1 <0>      -0.0900
   18 C18       3.2500     0.2078     5.0063 C.ar   1 <0>      -0.1500
   19 H19       1.0042     1.8801     0.0026 H      1 <0>       0.0900
   20 H20      -0.5455     1.8639    -0.8728 H      1 <0>       0.0800
   21 H21      -0.5286     1.8543     0.9071 H      1 <0>       0.1100
   22 H22       0.0639    -4.2359     0.6459 H      1 <0>       0.0800
   23 H23       0.9490    -3.4505     1.9755 H      1 <0>       0.1100
   24 H24      -0.8308    -3.4755     1.9836 H      1 <0>       0.1100
   25 H25      -0.1261     0.2210     5.2315 H      1 <0>       0.1000
   26 H26       0.4284     0.8420     7.5476 H      1 <0>       0.1100
   27 H27       2.7806     1.0617     8.2358 H      1 <0>       0.1100
   28 H28       4.0424     0.0321     4.2938 H      1 <0>       0.1200
@<TRIPOS>BOND
   1    1    2 1
   2    1   19 1
   3    1   20 1
   4    1   21 1
   5    2    7 1
   6    2    3 2
   7    3    4 1
   8    4    5 1
   9    5    6 1
  10    5    7 2
  11    6   22 1
  12    6   23 1
  13    6   24 1
  14    7    8 1
  15    8    9 2
  16    8   10 2
  17    8   11 1
  18   11   12 1
  19   12   18 ar
  20   12   13 ar
  21   13   14 ar
  22   13   25 1
  23   14   15 ar
  24   14   26 1
  25   15   16 ar
  26   15   27 1
  27   16   17 1
  28   16   18 ar
  29   18   28 1

@<TRIPOS>MOLECULE
ZINC000016130841
  29   30    0    0    0
SMALL
USER_CHARGES
NO_NAME
@<TRIPOS>ATOM
    1 C1        0.8223     1.7751     0.1387 C.3    1 <0>      -0.1100
    2 C2        0.5530     0.3047    -0.0524 C.2    1 <0>       0.1100
    3 N3        0.5650    -0.3505    -1.1772 N.2    1 <0>      -0.3600
    4 O4        0.3109    -1.5213    -1.0132 O.3    1 <0>       0.1000
    5 C5        0.0912    -1.8015     0.2791 C.2    1 <0>       0.1200
    6 C6       -0.2508    -3.1471     0.8651 C.3    1 <0>      -0.1100
    7 C7        0.2434    -0.6376     0.9551 C.2    1 <0>      -0.8000
    8 S8        0.0821    -0.3600     2.6876 S.o2   1 <0>       2.7300
    9 O9       -0.3856     0.9733     2.8385 O.2    1 <0>      -0.9400
   10 O10      -0.6038    -1.4884     3.2126 O.2    1 <0>      -0.9400
   11 N11       1.6063    -0.3969     3.3339 N.am   1 <0>      -1.0500
   12 C12       2.3687    -1.5648     3.2587 C.ar   1 <0>       0.1500
   13 C13       1.7981    -2.7902     3.5782 C.ar   1 <0>      -0.1400
   14 C14       2.5546    -3.9434     3.5029 C.ar   1 <0>      -0.0900
   15 C15       3.8787    -3.8792     3.1105 C.ar   1 <0>      -0.0900
   16 C16       4.4506    -2.6602     2.7919 C.ar   1 <0>      -0.0800
   17 I17       6.4578    -2.5691     2.1985 I      1 <0>      -0.0300
   18 C18       3.6976    -1.5039     2.8587 C.ar   1 <0>      -0.1000
   19 H19       1.8881     1.9305     0.3062 H      1 <0>       0.0900
   20 H20       0.5113     2.3203    -0.7524 H      1 <0>       0.0900
   21 H21       0.2624     2.1380     1.0006 H      1 <0>       0.1100
   22 H22      -0.2978    -3.8891     0.0681 H      1 <0>       0.1000
   23 H23       0.5153    -3.4352     1.5850 H      1 <0>       0.1100
   24 H24      -1.2172    -3.0902     1.3660 H      1 <0>       0.1200
   25 H25       1.9696     0.3926     3.7648 H      1 <0>       0.4300
   26 H26       0.7640    -2.8412     3.8855 H      1 <0>       0.1700
   27 H27       2.1113    -4.8964     3.7512 H      1 <0>       0.1400
   28 H28       4.4681    -4.7824     3.0528 H      1 <0>       0.1400
   29 H29       4.1444    -0.5526     2.6100 H      1 <0>       0.1400
@<TRIPOS>BOND
   1    1    2 1
   2    1   19 1
   3    1   20 1
   4    1   21 1
   5    2    7 1
   6    2    3 2
   7    3    4 1
   8    4    5 1
   9    5    6 1
  10    5    7 2
  11    6   22 1
  12    6   23 1
  13    6   24 1
  14    7    8 1
  15    8    9 2
  16    8   10 2
  17    8   11 am
  18   11   12 1
  19   11   25 1
  20   12   18 ar
  21   12   13 ar
  22   13   14 ar
  23   13   26 1
  24   14   15 ar
  25   14   27 1
  26   15   16 ar
  27   15   28 1
  28   16   17 1
  29   16   18 ar
  30   18   29 1
@<TRIPOS>MOLECULE
ZINC000019285238
  52   55    0    0    0
SMALL
USER_CHARGES
NO_NAME
@<TRIPOS>ATOM
    1 C1       -0.0184     1.5028     0.0103 C.3    1 <0>      -0.1200
    2 C2        0.0021    -0.0041     0.0020 C.2    1 <0>       0.4200
    3 N3       -1.1289    -0.6579     0.0039 N.2    1 <0>      -0.5500
    4 C4       -1.1633    -1.9926    -0.0036 C.2    1 <0>       0.1700
    5 C5       -2.4868    -2.7134    -0.0017 C.3    1 <0>      -0.0500
    6 H6       -2.3362    -3.7929     0.0039 H      1 <0>       0.1300
    7 C7       -3.3491    -2.2736     1.2107 C.3    1 <0>      -0.1300
    8 C8       -4.7827    -2.5416     0.6886 C.3    1 <0>       0.0000
    9 N9       -4.7374    -2.1767    -0.7434 N.4    1 <0>      -0.3900
   10 H10      -5.0635    -1.2293    -0.8628 H      1 <0>       0.4300
   11 C11      -5.5871    -3.0940    -1.5144 C.3    1 <0>       0.0600
   12 C12      -7.0292    -2.8866    -1.1290 C.ar   1 <0>      -0.2300
   13 C13      -7.5766    -3.6140    -0.0882 C.ar   1 <0>      -0.0400
   14 C14      -8.8978    -3.4264     0.2676 C.ar   1 <0>      -0.2000
   15 C15      -9.6770    -2.5057    -0.4215 C.ar   1 <0>       0.2700
   16 N16     -11.0134    -2.3131    -0.0640 N.pl3  1 <0>      -0.6200
   17 C17     -11.7190    -3.0101     1.0213 C.3    1 <0>       0.1100
   18 C18     -13.1739    -2.4952     1.0266 C.3    1 <0>      -0.1300
   19 C19     -13.3564    -1.9543    -0.4161 C.3    1 <0>      -0.1400
   20 C20     -11.9482    -1.3728    -0.7084 C.3    1 <0>       0.1000
   21 C21      -9.1239    -1.7767    -1.4666 C.ar   1 <0>      -0.2000
   22 C22      -7.8005    -1.9651    -1.8134 C.ar   1 <0>      -0.0400
   23 C23      -3.3415    -2.2879    -1.2141 C.3    1 <0>       0.0000
   24 C24      -0.0006    -2.7019    -0.0135 C.2    1 <0>      -0.2700
   25 C25       1.2204    -1.9963    -0.0156 C.2    1 <0>       0.5200
   26 O26       2.2845    -2.5926    -0.0243 O.2    1 <0>      -0.5200
   27 N27       1.1865    -0.6465    -0.0127 N.am   1 <0>      -0.6300
   28 H28       1.0042     1.8801     0.0026 H      1 <0>       0.0900
   29 H29      -0.5455     1.8639    -0.8728 H      1 <0>       0.1100
   30 H30      -0.5286     1.8543     0.9071 H      1 <0>       0.1100
   31 H31      -3.1319    -2.8849     2.0866 H      1 <0>       0.1200
   32 H32      -3.2046    -1.2155     1.4293 H      1 <0>       0.1100
   33 H33      -5.0378    -3.5950     0.8039 H      1 <0>       0.1300
   34 H34      -5.5021    -1.9161     1.2171 H      1 <0>       0.1300
   35 H35      -5.4634    -2.8956    -2.5790 H      1 <0>       0.1300
   36 H36      -5.2983    -4.1231    -1.3006 H      1 <0>       0.1300
   37 H37      -6.9704    -4.3299     0.4470 H      1 <0>       0.1300
   38 H38      -9.3248    -3.9951     1.0804 H      1 <0>       0.1300
   39 H39     -11.7069    -4.0850     0.8411 H      1 <0>       0.0700
   40 H40     -11.2433    -2.7867     1.9762 H      1 <0>       0.0700
   41 H41     -13.8705    -3.3100     1.2240 H      1 <0>       0.0900
   42 H42     -13.2972    -1.6954     1.7568 H      1 <0>       0.0800
   43 H43     -13.6011    -2.7606    -1.1076 H      1 <0>       0.0800
   44 H44     -14.1145    -1.1717    -0.4470 H      1 <0>       0.0900
   45 H45     -11.8516    -0.3771    -0.2755 H      1 <0>       0.0700
   46 H46     -11.7671    -1.3395    -1.7828 H      1 <0>       0.0800
   47 H47      -9.7270    -1.0603    -2.0046 H      1 <0>       0.1300
   48 H48      -7.3698    -1.3987    -2.6259 H      1 <0>       0.1300
   49 H49      -2.9979    -1.3230    -1.5869 H      1 <0>       0.1400
   50 H50      -3.2747    -3.0377    -2.0024 H      1 <0>       0.1400
   51 H51      -0.0134    -3.7818    -0.0193 H      1 <0>       0.1600
   52 H52       2.0137    -0.1399    -0.0144 H      1 <0>       0.4300
@<TRIPOS>BOND
   1    1    2 1
   2    1   28 1
   3    1   29 1
   4    1   30 1
   5    2   27 1
   6    2    3 2
   7    3    4 1
   8    4    5 1
   9    4   24 2
  10    5    6 1
  11    5   23 1
  12    5    7 1
  13    7    8 1
  14    7   31 1
  15    7   32 1
  16    8    9 1
  17    8   33 1
  18    8   34 1
  19    9   10 1
  20    9   11 1
  21    9   23 1
  22   11   12 1
  23   11   35 1
  24   11   36 1
  25   12   22 ar
  26   12   13 ar
  27   13   14 ar
  28   13   37 1
  29   14   15 ar
  30   14   38 1
  31   15   16 1
  32   15   21 ar
  33   16   20 1
  34   16   17 1
  35   17   18 1
  36   17   39 1
  37   17   40 1
  38   18   19 1
  39   18   41 1
  40   18   42 1
  41   19   20 1
  42   19   43 1
  43   19   44 1
  44   20   45 1
  45   20   46 1
  46   21   22 ar
  47   21   47 1
  48   22   48 1
  49   23   49 1
  50   23   50 1
  51   24   25 1
  52   24   51 1
  53   25   26 2
  54   25   27 am
  55   27   52 1

@<TRIPOS>MOLECULE
ZINC000019285238
  52   55    0    0    0
SMALL
USER_CHARGES
NO_NAME
@<TRIPOS>ATOM
    1 C1       -0.0184     1.5028     0.0103 C.3    1 <0>      -0.1200
    2 C2        0.0021    -0.0041     0.0020 C.2    1 <0>       0.4200
    3 N3       -1.1289    -0.6579     0.0039 N.2    1 <0>      -0.5500
    4 C4       -1.1633    -1.9926    -0.0036 C.2    1 <0>       0.1700
    5 C5       -2.4868    -2.7134    -0.0017 C.3    1 <0>      -0.0600
    6 H6       -2.3365    -3.7929     0.0039 H      1 <0>       0.1200
    7 C7       -3.3469    -2.2745     1.2056 C.3    1 <0>      -0.1300
    8 C8       -4.7834    -2.1728     0.6603 C.3    1 <0>       0.0000
    9 N9       -4.7350    -2.5636    -0.7654 N.4    1 <0>      -0.3900
   10 H10      -4.9399    -3.5466    -0.8638 H      1 <0>       0.4200
   11 C11      -5.6929    -1.7655    -1.5422 C.3    1 <0>       0.0600
   12 C12      -7.0967    -2.1152    -1.1203 C.ar   1 <0>      -0.2300
   13 C13      -7.7746    -3.1373    -1.7591 C.ar   1 <0>      -0.0400
   14 C14      -9.0612    -3.4604    -1.3749 C.ar   1 <0>      -0.2000
   15 C15      -9.6743    -2.7573    -0.3456 C.ar   1 <0>       0.2700
   16 N16     -10.9753    -3.0817     0.0457 N.pl3  1 <0>      -0.6200
   17 C17     -11.8061    -4.1443    -0.5391 C.3    1 <0>       0.1100
   18 C18     -13.1663    -4.1157     0.1895 C.3    1 <0>      -0.1300
   19 C19     -13.2273    -2.6722     0.7549 C.3    1 <0>      -0.1400
   20 C20     -11.7404    -2.4194     1.1178 C.3    1 <0>       0.1000
   21 C21      -8.9904    -1.7311     0.2939 C.ar   1 <0>      -0.2000
   22 C22      -7.7020    -1.4170    -0.0915 C.ar   1 <0>      -0.0400
   23 C23      -3.3458    -2.2857    -1.2182 C.3    1 <0>       0.0100
   24 C24      -0.0006    -2.7019    -0.0135 C.2    1 <0>      -0.2700
   25 C25       1.2204    -1.9963    -0.0156 C.2    1 <0>       0.5200
   26 O26       2.2845    -2.5926    -0.0243 O.2    1 <0>      -0.5200
   27 N27       1.1865    -0.6465    -0.0127 N.am   1 <0>      -0.6300
   28 H28       1.0042     1.8801     0.0026 H      1 <0>       0.0900
   29 H29      -0.5455     1.8639    -0.8728 H      1 <0>       0.1100
   30 H30      -0.5286     1.8543     0.9071 H      1 <0>       0.1100
   31 H31      -3.2951    -3.0210     1.9983 H      1 <0>       0.1100
   32 H32      -3.0131    -1.3050     1.5755 H      1 <0>       0.1100
   33 H33      -5.4377    -2.8503     1.2089 H      1 <0>       0.1300
   34 H34      -5.1439    -1.1483     0.7524 H      1 <0>       0.1300
   35 H35      -5.5128    -0.7056    -1.3624 H      1 <0>       0.1300
   36 H36      -5.5683    -1.9803    -2.6035 H      1 <0>       0.1300
   37 H37      -7.2975    -3.6833    -2.5595 H      1 <0>       0.1300
   38 H38      -9.5903    -4.2585    -1.8744 H      1 <0>       0.1300
   39 H39     -11.9516    -3.9580    -1.6031 H      1 <0>       0.0700
   40 H40     -11.3272    -5.1124    -0.3922 H      1 <0>       0.0700
   41 H41     -13.9828    -4.2903    -0.5112 H      1 <0>       0.0900
   42 H42     -13.1866    -4.8474     0.9971 H      1 <0>       0.0800
   43 H43     -13.5726    -1.9697    -0.0036 H      1 <0>       0.0800
   44 H44     -13.8575    -2.6268     1.6431 H      1 <0>       0.0900
   45 H45     -11.5060    -2.8608     2.0866 H      1 <0>       0.0700
   46 H46     -11.5282    -1.3503     1.1258 H      1 <0>       0.0800
   47 H47      -9.4643    -1.1823     1.0943 H      1 <0>       0.1300
   48 H48      -7.1697    -0.6193     0.4053 H      1 <0>       0.1300
   49 H49      -3.2136    -1.2235    -1.4243 H      1 <0>       0.1400
   50 H50      -3.1008    -2.8825    -2.0967 H      1 <0>       0.1400
   51 H51      -0.0134    -3.7818    -0.0193 H      1 <0>       0.1600
   52 H52       2.0137    -0.1399    -0.0144 H      1 <0>       0.4300
@<TRIPOS>BOND
   1    1    2 1
   2    1   28 1
   3    1   29 1
   4    1   30 1
   5    2   27 1
   6    2    3 2
   7    3    4 1
   8    4    5 1
   9    4   24 2
  10    5    6 1
  11    5   23 1
  12    5    7 1
  13    7    8 1
  14    7   31 1
  15    7   32 1
  16    8    9 1
  17    8   33 1
  18    8   34 1
  19    9   10 1
  20    9   11 1
  21    9   23 1
  22   11   12 1
  23   11   35 1
  24   11   36 1
  25   12   22 ar
  26   12   13 ar
  27   13   14 ar
  28   13   37 1
  29   14   15 ar
  30   14   38 1
  31   15   16 1
  32   15   21 ar
  33   16   20 1
  34   16   17 1
  35   17   18 1
  36   17   39 1
  37   17   40 1
  38   18   19 1
  39   18   41 1
  40   18   42 1
  41   19   20 1
  42   19   43 1
  43   19   44 1
  44   20   45 1
  45   20   46 1
  46   21   22 ar
  47   21   47 1
  48   22   48 1
  49   23   49 1
  50   23   50 1
  51   24   25 1
  52   24   51 1
  53   25   26 2
  54   25   27 am
  55   27   52 1

@<TRIPOS>MOLECULE
ZINC000019285238
  51   54    0    0    0
SMALL
USER_CHARGES
NO_NAME
@<TRIPOS>ATOM
    1 C1       -0.0184     1.5028     0.0103 C.3    1 <0>      -0.0800
    2 C2        0.0021    -0.0041     0.0020 C.2    1 <0>       0.3500
    3 N3       -1.1289    -0.6579     0.0039 N.2    1 <0>      -0.6400
    4 C4       -1.1633    -1.9926    -0.0036 C.2    1 <0>       0.1600
    5 C5       -2.4868    -2.7134    -0.0017 C.3    1 <0>      -0.0400
    6 H6       -2.3365    -3.7929     0.0039 H      1 <0>       0.1000
    7 C7       -3.3469    -2.2745     1.2056 C.3    1 <0>      -0.1300
    8 C8       -4.7834    -2.1728     0.6603 C.3    1 <0>       0.0000
    9 N9       -4.7350    -2.5636    -0.7654 N.4    1 <0>      -0.3900
   10 H10      -4.9399    -3.5466    -0.8638 H      1 <0>       0.4200
   11 C11      -5.6929    -1.7655    -1.5422 C.3    1 <0>       0.0600
   12 C12      -7.0967    -2.1152    -1.1203 C.ar   1 <0>      -0.2200
   13 C13      -7.7746    -3.1373    -1.7591 C.ar   1 <0>      -0.0400
   14 C14      -9.0612    -3.4604    -1.3749 C.ar   1 <0>      -0.2000
   15 C15      -9.6743    -2.7573    -0.3456 C.ar   1 <0>       0.2700
   16 N16     -10.9753    -3.0817     0.0457 N.pl3  1 <0>      -0.6300
   17 C17     -11.8061    -4.1443    -0.5391 C.3    1 <0>       0.1100
   18 C18     -13.1663    -4.1157     0.1895 C.3    1 <0>      -0.1300
   19 C19     -13.2273    -2.6722     0.7549 C.3    1 <0>      -0.1400
   20 C20     -11.7404    -2.4194     1.1178 C.3    1 <0>       0.1100
   21 C21      -8.9904    -1.7311     0.2939 C.ar   1 <0>      -0.2000
   22 C22      -7.7020    -1.4170    -0.0915 C.ar   1 <0>      -0.0400
   23 C23      -3.3458    -2.2857    -1.2182 C.3    1 <0>       0.0100
   24 C24      -0.0006    -2.7019    -0.0135 C.2    1 <0>      -0.3600
   25 C25       1.2204    -1.9963    -0.0156 C.2    1 <0>       0.4900
   26 O26       2.2845    -2.5926    -0.0243 O.2    1 <0>      -0.6100
   27 N27       1.1865    -0.6465    -0.0127 N.pl3  1 <0>      -0.6500
   28 H28       1.0042     1.8801     0.0026 H      1 <0>       0.0700
   29 H29      -0.5455     1.8639    -0.8728 H      1 <0>       0.0700
   30 H30      -0.5286     1.8543     0.9071 H      1 <0>       0.0700
   31 H31      -3.2951    -3.0210     1.9983 H      1 <0>       0.1000
   32 H32      -3.0131    -1.3050     1.5755 H      1 <0>       0.1100
   33 H33      -5.4377    -2.8503     1.2089 H      1 <0>       0.1200
   34 H34      -5.1439    -1.1483     0.7524 H      1 <0>       0.1200
   35 H35      -5.5128    -0.7056    -1.3624 H      1 <0>       0.1300
   36 H36      -5.5683    -1.9803    -2.6035 H      1 <0>       0.1300
   37 H37      -7.2975    -3.6833    -2.5595 H      1 <0>       0.1300
   38 H38      -9.5903    -4.2585    -1.8744 H      1 <0>       0.1300
   39 H39     -11.9516    -3.9580    -1.6031 H      1 <0>       0.0700
   40 H40     -11.3272    -5.1124    -0.3922 H      1 <0>       0.0700
   41 H41     -13.9828    -4.2903    -0.5112 H      1 <0>       0.0900
   42 H42     -13.1866    -4.8474     0.9971 H      1 <0>       0.0800
   43 H43     -13.5726    -1.9697    -0.0036 H      1 <0>       0.0800
   44 H44     -13.8575    -2.6268     1.6431 H      1 <0>       0.0900
   45 H45     -11.5060    -2.8608     2.0866 H      1 <0>       0.0700
   46 H46     -11.5282    -1.3503     1.1258 H      1 <0>       0.0800
   47 H47      -9.4643    -1.1823     1.0943 H      1 <0>       0.1300
   48 H48      -7.1697    -0.6193     0.4053 H      1 <0>       0.1300
   49 H49      -3.2136    -1.2235    -1.4243 H      1 <0>       0.1400
   50 H50      -3.1008    -2.8825    -2.0967 H      1 <0>       0.1300
   51 H51      -0.0134    -3.7818    -0.0193 H      1 <0>       0.1100
@<TRIPOS>BOND
   1    1    2 1
   2    1   28 1
   3    1   29 1
   4    1   30 1
   5    2   27 1
   6    2    3 2
   7    3    4 1
   8    4    5 1
   9    4   24 2
  10    5    6 1
  11    5   23 1
  12    5    7 1
  13    7    8 1
  14    7   31 1
  15    7   32 1
  16    8    9 1
  17    8   33 1
  18    8   34 1
  19    9   10 1
  20    9   11 1
  21    9   23 1
  22   11   12 1
  23   11   35 1
  24   11   36 1
  25   12   22 ar
  26   12   13 ar
  27   13   14 ar
  28   13   37 1
  29   14   15 ar
  30   14   38 1
  31   15   16 1
  32   15   21 ar
  33   16   20 1
  34   16   17 1
  35   17   18 1
  36   17   39 1
  37   17   40 1
  38   18   19 1
  39   18   41 1
  40   18   42 1
  41   19   20 1
  42   19   43 1
  43   19   44 1
  44   20   45 1
  45   20   46 1
  46   21   22 ar
  47   21   47 1
  48   22   48 1
  49   23   49 1
  50   23   50 1
  51   24   25 1
  52   24   51 1
  53   25   26 2
  54   25   27 1

@<TRIPOS>MOLECULE
ZINC000019285238
  51   54    0    0    0
SMALL
USER_CHARGES
NO_NAME
@<TRIPOS>ATOM
    1 C1       -0.0184     1.5028     0.0103 C.3    1 <0>      -0.0800
    2 C2        0.0021    -0.0041     0.0020 C.2    1 <0>       0.3500
    3 N3       -1.1289    -0.6579     0.0039 N.2    1 <0>      -0.6400
    4 C4       -1.1633    -1.9926    -0.0036 C.2    1 <0>       0.1500
    5 C5       -2.4868    -2.7134    -0.0017 C.3    1 <0>      -0.0400
    6 H6       -2.3362    -3.7929     0.0039 H      1 <0>       0.1000
    7 C7       -3.3491    -2.2736     1.2107 C.3    1 <0>      -0.1300
    8 C8       -4.7827    -2.5416     0.6886 C.3    1 <0>       0.0000
    9 N9       -4.7374    -2.1767    -0.7434 N.4    1 <0>      -0.3900
   10 H10      -5.0635    -1.2293    -0.8628 H      1 <0>       0.4200
   11 C11      -5.5871    -3.0940    -1.5144 C.3    1 <0>       0.0500
   12 C12      -7.0292    -2.8866    -1.1290 C.ar   1 <0>      -0.2200
   13 C13      -7.5766    -3.6140    -0.0882 C.ar   1 <0>      -0.0400
   14 C14      -8.8978    -3.4264     0.2676 C.ar   1 <0>      -0.2000
   15 C15      -9.6770    -2.5057    -0.4215 C.ar   1 <0>       0.2700
   16 N16     -11.0134    -2.3131    -0.0640 N.pl3  1 <0>      -0.6300
   17 C17     -11.7190    -3.0101     1.0213 C.3    1 <0>       0.1100
   18 C18     -13.1739    -2.4952     1.0266 C.3    1 <0>      -0.1300
   19 C19     -13.3564    -1.9543    -0.4161 C.3    1 <0>      -0.1400
   20 C20     -11.9482    -1.3728    -0.7084 C.3    1 <0>       0.1100
   21 C21      -9.1239    -1.7767    -1.4666 C.ar   1 <0>      -0.2000
   22 C22      -7.8005    -1.9651    -1.8134 C.ar   1 <0>      -0.0400
   23 C23      -3.3415    -2.2879    -1.2141 C.3    1 <0>       0.0000
   24 C24      -0.0006    -2.7019    -0.0135 C.2    1 <0>      -0.3600
   25 C25       1.2204    -1.9963    -0.0156 C.2    1 <0>       0.4900
   26 O26       2.2845    -2.5926    -0.0243 O.2    1 <0>      -0.6100
   27 N27       1.1865    -0.6465    -0.0127 N.pl3  1 <0>      -0.6500
   28 H28       1.0042     1.8801     0.0026 H      1 <0>       0.0700
   29 H29      -0.5455     1.8639    -0.8728 H      1 <0>       0.0700
   30 H30      -0.5286     1.8543     0.9071 H      1 <0>       0.0700
   31 H31      -3.1319    -2.8849     2.0866 H      1 <0>       0.1100
   32 H32      -3.2046    -1.2155     1.4293 H      1 <0>       0.1100
   33 H33      -5.0378    -3.5950     0.8039 H      1 <0>       0.1200
   34 H34      -5.5021    -1.9161     1.2171 H      1 <0>       0.1300
   35 H35      -5.4634    -2.8956    -2.5790 H      1 <0>       0.1300
   36 H36      -5.2983    -4.1231    -1.3006 H      1 <0>       0.1300
   37 H37      -6.9704    -4.3299     0.4470 H      1 <0>       0.1300
   38 H38      -9.3248    -3.9951     1.0804 H      1 <0>       0.1300
   39 H39     -11.7069    -4.0850     0.8411 H      1 <0>       0.0700
   40 H40     -11.2433    -2.7867     1.9762 H      1 <0>       0.0700
   41 H41     -13.8705    -3.3100     1.2240 H      1 <0>       0.0900
   42 H42     -13.2972    -1.6954     1.7568 H      1 <0>       0.0800
   43 H43     -13.6011    -2.7606    -1.1076 H      1 <0>       0.0800
   44 H44     -14.1145    -1.1717    -0.4470 H      1 <0>       0.0900
   45 H45     -11.8516    -0.3771    -0.2755 H      1 <0>       0.0700
   46 H46     -11.7671    -1.3395    -1.7828 H      1 <0>       0.0700
   47 H47      -9.7270    -1.0603    -2.0046 H      1 <0>       0.1300
   48 H48      -7.3698    -1.3987    -2.6259 H      1 <0>       0.1300
   49 H49      -2.9979    -1.3230    -1.5869 H      1 <0>       0.1400
   50 H50      -3.2747    -3.0377    -2.0024 H      1 <0>       0.1300
   51 H51      -0.0134    -3.7818    -0.0193 H      1 <0>       0.1100
@<TRIPOS>BOND
   1    1    2 1
   2    1   28 1
   3    1   29 1
   4    1   30 1
   5    2   27 1
   6    2    3 2
   7    3    4 1
   8    4    5 1
   9    4   24 2
  10    5    6 1
  11    5   23 1
  12    5    7 1
  13    7    8 1
  14    7   31 1
  15    7   32 1
  16    8    9 1
  17    8   33 1
  18    8   34 1
  19    9   10 1
  20    9   11 1
  21    9   23 1
  22   11   12 1
  23   11   35 1
  24   11   36 1
  25   12   22 ar
  26   12   13 ar
  27   13   14 ar
  28   13   37 1
  29   14   15 ar
  30   14   38 1
  31   15   16 1
  32   15   21 ar
  33   16   20 1
  34   16   17 1
  35   17   18 1
  36   17   39 1
  37   17   40 1
  38   18   19 1
  39   18   41 1
  40   18   42 1
  41   19   20 1
  42   19   43 1
  43   19   44 1
  44   20   45 1
  45   20   46 1
  46   21   22 ar
  47   21   47 1
  48   22   48 1
  49   23   49 1
  50   23   50 1
  51   24   25 1
  52   24   51 1
  53   25   26 2
  54   25   27 1
@<TRIPOS>MOLECULE
ZINC000012666285
42    45    1     0     0
SMALL
USER_CHARGES
@<TRIPOS>ATOM
1      O1      0.0021   -0.0041    0.0020 O.2      1 ZINC000012666285   -0.5300
2      C2     -0.0145    1.2156    0.0087 C.2      1 ZINC000012666285    0.5300
3      N3     -1.1854    1.8856    0.0291 N.am     1 ZINC000012666285   -0.6300
4      C4     -1.1788    3.2484    0.0333 C.2      1 ZINC000012666285    0.4500
5      C5     -2.4615    3.9809    0.0588 C.ar     1 ZINC000012666285   -0.1300
6      C6     -2.4822    5.3810    0.0578 C.ar     1 ZINC000012666285   -0.0100
7      C7     -3.7101    6.0187    0.0823 C.ar     1 ZINC000012666285   -0.1700
8      C8     -4.8666    5.2603    0.1069 C.ar     1 ZINC000012666285    0.1300
9      N9     -4.8169    3.9417    0.1077 N.ar     1 ZINC000012666285   -0.4800
10     C10    -3.6740    3.2888    0.0786 C.ar     1 ZINC000012666285    0.1300
11     N11    -0.0501    3.9222    0.0154 N.2      1 ZINC000012666285   -0.5200
12     C12     1.1373    3.3073   -0.0047 C.2      1 ZINC000012666285    0.1800
13     C13     1.1915    1.9498    0.0012 C.2      1 ZINC000012666285   -0.2300
14     C14     2.4970    1.2006   -0.0061 C.3      1 ZINC000012666285   -0.0500
15     C15     3.6310    2.1312   -0.4386 C.3      1 ZINC000012666285    0.0500
16     N16     3.5519    3.3640    0.3615 N.3      1 ZINC000012666285   -0.5300
17     C17     4.7859    4.1515    0.2383 C.3      1 ZINC000012666285    0.0900
18     C18     4.7718    5.2688    1.2495 C.ar     1 ZINC000012666285   -0.0200
19     C19     4.2245    6.4937    0.9176 C.ar     1 ZINC000012666285   -0.1600
20     C20     4.2109    7.5210    1.8459 C.ar     1 ZINC000012666285    0.1300
21     F21     3.6759    8.7183    1.5211 F        1 ZINC000012666285   -0.1300
22     C22     4.7454    7.3207    3.1069 C.ar     1 ZINC000012666285   -0.1900
23     C23     5.2929    6.0934    3.4385 C.ar     1 ZINC000012666285    0.1300
24     F24     5.8149    5.8965    4.6689 F        1 ZINC000012666285   -0.1300
25     C25     5.3010    5.0660    2.5101 C.ar     1 ZINC000012666285   -0.1400
26     C26     2.3827    4.1538   -0.0308 C.3      1 ZINC000012666285    0.1000
27     H27    -2.0255    1.4009    0.0405 H        1 ZINC000012666285    0.4200
28     H28    -1.5635    5.9486    0.0387 H        1 ZINC000012666285    0.1600
29     H29    -3.7648    7.0973    0.0827 H        1 ZINC000012666285    0.1500
30     H30    -5.8261    5.7557    0.1260 H        1 ZINC000012666285    0.1700
31     H31    -3.6741    2.2088    0.0800 H        1 ZINC000012666285    0.1600
32     H32     2.7021    0.8213    0.9950 H        1 ZINC000012666285    0.0900
33     H33     2.4302    0.3641   -0.7017 H        1 ZINC000012666285    0.0900
34     H34     4.5909    1.6438   -0.2679 H        1 ZINC000012666285    0.0900
35     H35     3.5244    2.3726   -1.4962 H        1 ZINC000012666285    0.0500
36     H36     5.6470    3.5083    0.4196 H        1 ZINC000012666285    0.1000
37     H37     4.8506    4.5709   -0.7656 H        1 ZINC000012666285    0.0600
38     H38     3.8075    6.6498   -0.0664 H        1 ZINC000012666285    0.1400
39     H39     4.7356    8.1215    3.8315 H        1 ZINC000012666285    0.1500
40     H40     5.7278    4.1082    2.7687 H        1 ZINC000012666285    0.1500
41     H41     2.5289    4.5351   -1.0415 H        1 ZINC000012666285    0.0700
42     H42     2.2682    4.9923    0.6562 H        1 ZINC000012666285    0.1100
@<TRIPOS>BOND
1     1     2     2
2     2     13    1
3     2     3     am
4     3     4     1
5     3     27    1
6     4     5     1
7     4     11    2
8     5     10    ar
9     5     6     ar
10    6     7     ar
11    6     28    1
12    7     8     ar
13    7     29    1
14    8     9     ar
15    8     30    1
16    9     10    ar
17    10    31    1
18    11    12    1
19    12    26    1
20    12    13    2
21    13    14    1
22    14    15    1
23    14    32    1
24    14    33    1
25    15    16    1
26    15    34    1
27    15    35    1
28    16    17    1
29    16    26    1
30    17    18    1
31    17    36    1
32    17    37    1
33    18    25    ar
34    18    19    ar
35    19    20    ar
36    19    38    1
37    20    21    1
38    20    22    ar
39    22    23    ar
40    22    39    1
41    23    24    1
42    23    25    ar
43    25    40    1
44    26    41    1
45    26    42    1
@<TRIPOS>SUBSTRUCTURE
1   ZINC000012666285 1     RESIDUE    1   A     ZIN   1

@<TRIPOS>MOLECULE
ZINC000012666285
41    44    1     0     0
SMALL
USER_CHARGES
@<TRIPOS>ATOM
1      O1      0.0021   -0.0041    0.0020 O.2      1 ZINC000012666285   -0.6200
2      C2     -0.0145    1.2156    0.0087 C.2      1 ZINC000012666285    0.4900
3      N3     -1.1854    1.8856    0.0291 N.pl3    1 ZINC000012666285   -0.6500
4      C4     -1.1788    3.2484    0.0333 C.2      1 ZINC000012666285    0.3700
5      C5     -2.4615    3.9809    0.0588 C.ar     1 ZINC000012666285   -0.0600
6      C6     -3.6774    3.2868    0.0845 C.ar     1 ZINC000012666285   -0.0400
7      C7     -4.8507    4.0201    0.1077 C.ar     1 ZINC000012666285   -0.1900
8      C8     -4.7859    5.4018    0.1049 C.ar     1 ZINC000012666285    0.0900
9      N9     -3.6254    6.0295    0.0800 N.ar     1 ZINC000012666285   -0.5000
10     C10    -2.4820    5.3769    0.0636 C.ar     1 ZINC000012666285    0.1300
11     N11    -0.0501    3.9222    0.0154 N.2      1 ZINC000012666285   -0.6100
12     C12     1.1373    3.3073   -0.0047 C.2      1 ZINC000012666285    0.1700
13     C13     1.1915    1.9498    0.0012 C.2      1 ZINC000012666285   -0.3200
14     C14     2.4970    1.2006   -0.0061 C.3      1 ZINC000012666285   -0.0300
15     C15     3.6310    2.1312   -0.4386 C.3      1 ZINC000012666285    0.0600
16     N16     3.5519    3.3640    0.3615 N.3      1 ZINC000012666285   -0.5300
17     C17     4.7859    4.1515    0.2383 C.3      1 ZINC000012666285    0.0900
18     C18     4.7718    5.2688    1.2495 C.ar     1 ZINC000012666285   -0.0200
19     C19     4.2245    6.4937    0.9176 C.ar     1 ZINC000012666285   -0.1600
20     C20     4.2109    7.5210    1.8459 C.ar     1 ZINC000012666285    0.1300
21     F21     3.6759    8.7183    1.5211 F        1 ZINC000012666285   -0.1300
22     C22     4.7454    7.3207    3.1069 C.ar     1 ZINC000012666285   -0.2000
23     C23     5.2929    6.0934    3.4385 C.ar     1 ZINC000012666285    0.1300
24     F24     5.8149    5.8965    4.6689 F        1 ZINC000012666285   -0.1300
25     C25     5.3010    5.0660    2.5101 C.ar     1 ZINC000012666285   -0.1400
26     C26     2.3827    4.1538   -0.0308 C.3      1 ZINC000012666285    0.1100
27     H27    -3.6989    2.2070    0.0857 H        1 ZINC000012666285    0.1500
28     H28    -5.8071    3.5188    0.1274 H        1 ZINC000012666285    0.1300
29     H29    -5.7001    5.9763    0.1230 H        1 ZINC000012666285    0.1500
30     H30    -1.5523    5.9261    0.0437 H        1 ZINC000012666285    0.1700
31     H31     2.7021    0.8213    0.9950 H        1 ZINC000012666285    0.0600
32     H32     2.4302    0.3641   -0.7017 H        1 ZINC000012666285    0.0700
33     H33     4.5909    1.6438   -0.2679 H        1 ZINC000012666285    0.0700
34     H34     3.5244    2.3726   -1.4962 H        1 ZINC000012666285    0.0300
35     H35     5.6470    3.5083    0.4196 H        1 ZINC000012666285    0.0900
36     H36     4.8506    4.5709   -0.7656 H        1 ZINC000012666285    0.0500
37     H37     3.8075    6.6498   -0.0664 H        1 ZINC000012666285    0.1400
38     H38     4.7356    8.1215    3.8315 H        1 ZINC000012666285    0.1500
39     H39     5.7278    4.1082    2.7687 H        1 ZINC000012666285    0.1400
40     H40     2.5289    4.5351   -1.0415 H        1 ZINC000012666285    0.0400
41     H41     2.2682    4.9923    0.6562 H        1 ZINC000012666285    0.0900
@<TRIPOS>BOND
1     1     2     2
2     2     13    1
3     2     3     1
4     3     4     1
5     4     5     1
6     4     11    2
7     5     10    ar
8     5     6     ar
9     6     7     ar
10    6     27    1
11    7     8     ar
12    7     28    1
13    8     9     ar
14    8     29    1
15    9     10    ar
16    10    30    1
17    11    12    1
18    12    26    1
19    12    13    2
20    13    14    1
21    14    15    1
22    14    31    1
23    14    32    1
24    15    16    1
25    15    33    1
26    15    34    1
27    16    17    1
28    16    26    1
29    17    18    1
30    17    35    1
31    17    36    1
32    18    25    ar
33    18    19    ar
34    19    20    ar
35    19    37    1
36    20    21    1
37    20    22    ar
38    22    23    ar
39    22    38    1
40    23    24    1
41    23    25    ar
42    25    39    1
43    26    40    1
44    26    41    1
@<TRIPOS>SUBSTRUCTURE
1   ZINC000012666285 1     RESIDUE    1   A     ZIN   1
@<TRIPOS>MOLECULE
ZINC000012122036
  42   45    0    0    0
SMALL
USER_CHARGES
NO_NAME
@<TRIPOS>ATOM
    1 O1        0.0021    -0.0041     0.0020 O.2    1 <0>      -0.5300
    2 C2       -0.0145     1.2156     0.0087 C.2    1 <0>       0.5300
    3 N3       -1.1854     1.8852     0.0291 N.am   1 <0>      -0.6300
    4 C4       -1.1802     3.2481     0.0326 C.2    1 <0>       0.4500
    5 C5       -2.4634     3.9796     0.0584 C.ar   1 <0>      -0.1300
    6 C6       -2.4850     5.3798     0.0567 C.ar   1 <0>      -0.0100
    7 C7       -3.7133     6.0166     0.0815 C.ar   1 <0>      -0.1700
    8 C8       -4.8693     5.2575     0.1070 C.ar   1 <0>       0.1300
    9 N9       -4.8188     3.9389     0.1084 N.ar   1 <0>      -0.4800
   10 C10      -3.6754     3.2868     0.0791 C.ar   1 <0>       0.1300
   11 N11      -0.0516     3.9222     0.0139 N.2    1 <0>      -0.5300
   12 C12       1.1351     3.3072    -0.0059 C.2    1 <0>       0.1900
   13 C13       1.1922     1.9498     0.0011 C.2    1 <0>      -0.2500
   14 C14       2.4958     1.1994    -0.0048 C.3    1 <0>       0.1100
   15 N15       3.5917     2.0753    -0.4326 N.3    1 <0>      -0.5200
   16 C16       4.8850     1.3851    -0.3376 C.3    1 <0>       0.0900
   17 C17       5.1974     1.1004     1.1089 C.ar   1 <0>      -0.0700
   18 C18       5.8927     2.0284     1.8608 C.ar   1 <0>      -0.1500
   19 C19       6.1803     1.7679     3.1901 C.ar   1 <0>       0.1300
   20 F20       6.8600     2.6753     3.9248 F      1 <0>      -0.1300
   21 C21       5.7707     0.5776     3.7658 C.ar   1 <0>      -0.1900
   22 C22       5.0740    -0.3509     3.0119 C.ar   1 <0>       0.1300
   23 F23       4.6737    -1.5131     3.5726 F      1 <0>      -0.1300
   24 C24       4.7834    -0.0862     1.6842 C.ar   1 <0>      -0.1500
   25 C25       3.5941     3.3122     0.3651 C.3    1 <0>       0.0400
   26 C26       2.3825     4.1526    -0.0326 C.3    1 <0>      -0.0700
   27 H27      -2.0252     1.4000     0.0409 H      1 <0>       0.4200
   28 H28      -1.5667     5.9479     0.0369 H      1 <0>       0.1600
   29 H29      -3.7687     7.0952     0.0814 H      1 <0>       0.1500
   30 H30      -5.8291     5.7522     0.1264 H      1 <0>       0.1700
   31 H31      -3.6748     2.2068     0.0810 H      1 <0>       0.1600
   32 H32       2.7023     0.8293     0.9995 H      1 <0>       0.0600
   33 H33       2.4217     0.3552    -0.6903 H      1 <0>       0.1000
   34 H34       4.8376     0.4470    -0.8905 H      1 <0>       0.1000
   35 H35       5.6660     2.0170    -0.7604 H      1 <0>       0.1000
   36 H36       6.2121     2.9571     1.4114 H      1 <0>       0.1400
   37 H37       5.9949     0.3734     4.8024 H      1 <0>       0.1500
   38 H38       4.2395    -0.8104     1.0959 H      1 <0>       0.1400
   39 H39       3.5310     3.0648     1.4247 H      1 <0>       0.0500
   40 H40       4.5091     3.8716     0.1705 H      1 <0>       0.0900
   41 H41       2.5267     4.5408    -1.0409 H      1 <0>       0.1000
   42 H42       2.2761     4.9855     0.6624 H      1 <0>       0.1000
@<TRIPOS>BOND
   1    1    2 2
   2    2   13 1
   3    2    3 am
   4    3    4 1
   5    3   27 1
   6    4    5 1
   7    4   11 2
   8    5   10 ar
   9    5    6 ar
  10    6    7 ar
  11    6   28 1
  12    7    8 ar
  13    7   29 1
  14    8    9 ar
  15    8   30 1
  16    9   10 ar
  17   10   31 1
  18   11   12 1
  19   12   26 1
  20   12   13 2
  21   13   14 1
  22   14   15 1
  23   14   32 1
  24   14   33 1
  25   15   16 1
  26   15   25 1
  27   16   17 1
  28   16   34 1
  29   16   35 1
  30   17   24 ar
  31   17   18 ar
  32   18   19 ar
  33   18   36 1
  34   19   20 1
  35   19   21 ar
  36   21   22 ar
  37   21   37 1
  38   22   23 1
  39   22   24 ar
  40   24   38 1
  41   25   26 1
  42   25   39 1
  43   25   40 1
  44   26   41 1
  45   26   42 1

@<TRIPOS>MOLECULE
ZINC000012122036
  41   44    0    0    0
SMALL
USER_CHARGES
NO_NAME
@<TRIPOS>ATOM
    1 O1        0.0021    -0.0041     0.0020 O.2    1 <0>      -0.6200
    2 C2       -0.0145     1.2156     0.0087 C.2    1 <0>       0.5000
    3 N3       -1.1854     1.8852     0.0291 N.pl3  1 <0>      -0.6500
    4 C4       -1.1802     3.2481     0.0326 C.2    1 <0>       0.3700
    5 C5       -2.4634     3.9796     0.0584 C.ar   1 <0>      -0.0600
    6 C6       -3.6788     3.2847     0.0850 C.ar   1 <0>      -0.0400
    7 C7       -4.8526     4.0173     0.1085 C.ar   1 <0>      -0.1900
    8 C8       -4.7887     5.3990     0.1049 C.ar   1 <0>       0.0900
    9 N9       -3.6287     6.0275     0.0792 N.ar   1 <0>      -0.5000
   10 C10      -2.4848     5.3757     0.0625 C.ar   1 <0>       0.1300
   11 N11      -0.0516     3.9222     0.0139 N.2    1 <0>      -0.6100
   12 C12       1.1351     3.3072    -0.0059 C.2    1 <0>       0.1800
   13 C13       1.1922     1.9498     0.0011 C.2    1 <0>      -0.3300
   14 C14       2.4958     1.1994    -0.0048 C.3    1 <0>       0.1300
   15 N15       3.5917     2.0753    -0.4326 N.3    1 <0>      -0.5200
   16 C16       4.8850     1.3851    -0.3376 C.3    1 <0>       0.0900
   17 C17       5.1974     1.1004     1.1089 C.ar   1 <0>      -0.0600
   18 C18       5.8927     2.0284     1.8608 C.ar   1 <0>      -0.1500
   19 C19       6.1803     1.7679     3.1901 C.ar   1 <0>       0.1300
   20 F20       6.8600     2.6753     3.9248 F      1 <0>      -0.1300
   21 C21       5.7707     0.5776     3.7658 C.ar   1 <0>      -0.2000
   22 C22       5.0740    -0.3509     3.0119 C.ar   1 <0>       0.1300
   23 F23       4.6737    -1.5131     3.5726 F      1 <0>      -0.1300
   24 C24       4.7834    -0.0862     1.6842 C.ar   1 <0>      -0.1500
   25 C25       3.5941     3.3122     0.3651 C.3    1 <0>       0.0500
   26 C26       2.3825     4.1526    -0.0326 C.3    1 <0>      -0.0600
   27 H27      -3.6997     2.2049     0.0868 H      1 <0>       0.1500
   28 H28      -5.8087     3.5154     0.1289 H      1 <0>       0.1300
   29 H29      -5.7033     5.9730     0.1232 H      1 <0>       0.1500
   30 H30      -1.5555     5.9255     0.0419 H      1 <0>       0.1700
   31 H31       2.7023     0.8293     0.9995 H      1 <0>       0.0300
   32 H32       2.4217     0.3552    -0.6903 H      1 <0>       0.0800
   33 H33       4.8376     0.4470    -0.8905 H      1 <0>       0.0900
   34 H34       5.6660     2.0170    -0.7604 H      1 <0>       0.0900
   35 H35       6.2121     2.9571     1.4114 H      1 <0>       0.1400
   36 H36       5.9949     0.3734     4.8024 H      1 <0>       0.1500
   37 H37       4.2395    -0.8104     1.0959 H      1 <0>       0.1500
   38 H38       3.5310     3.0648     1.4247 H      1 <0>       0.0400
   39 H39       4.5091     3.8716     0.1705 H      1 <0>       0.0700
   40 H40       2.5267     4.5408    -1.0409 H      1 <0>       0.0800
   41 H41       2.2761     4.9855     0.6624 H      1 <0>       0.0800
@<TRIPOS>BOND
   1    1    2 2
   2    2   13 1
   3    2    3 1
   4    3    4 1
   5    4    5 1
   6    4   11 2
   7    5   10 ar
   8    5    6 ar
   9    6    7 ar
  10    6   27 1
  11    7    8 ar
  12    7   28 1
  13    8    9 ar
  14    8   29 1
  15    9   10 ar
  16   10   30 1
  17   11   12 1
  18   12   26 1
  19   12   13 2
  20   13   14 1
  21   14   15 1
  22   14   31 1
  23   14   32 1
  24   15   16 1
  25   15   25 1
  26   16   17 1
  27   16   33 1
  28   16   34 1
  29   17   24 ar
  30   17   18 ar
  31   18   19 ar
  32   18   35 1
  33   19   20 1
  34   19   21 ar
  35   21   22 ar
  36   21   36 1
  37   22   23 1
  38   22   24 ar
  39   24   37 1
  40   25   26 1
  41   25   38 1
  42   25   39 1
  43   26   40 1
  44   26   41 1

@<TRIPOS>MOLECULE
ZINC000012122036
  43   46    0    0    0
SMALL
USER_CHARGES
NO_NAME
@<TRIPOS>ATOM
    1 O1        0.0021    -0.0041     0.0020 O.2    1 <0>      -0.5100
    2 C2       -0.0145     1.2156     0.0087 C.2    1 <0>       0.5400
    3 N3       -1.1853     1.8855     0.0291 N.am   1 <0>      -0.6300
    4 C4       -1.1804     3.2484     0.0391 C.2    1 <0>       0.5000
    5 C5       -2.4639     3.9796     0.0593 C.ar   1 <0>      -0.1600
    6 C6       -2.4858     5.3797     0.0640 C.ar   1 <0>       0.0000
    7 C7       -3.7143     6.0163     0.0832 C.ar   1 <0>      -0.1700
    8 C8       -4.8703     5.2569     0.0968 C.ar   1 <0>       0.1500
    9 N9       -4.8196     3.9383     0.0923 N.ar   1 <0>      -0.4800
   10 C10      -3.6759     3.2864     0.0681 C.ar   1 <0>       0.1500
   11 N11      -0.0516     3.9230     0.0316 N.2    1 <0>      -0.5300
   12 C12       1.1342     3.3076     0.0107 C.2    1 <0>       0.2200
   13 C13       1.1917     1.9500     0.0012 C.2    1 <0>      -0.3200
   14 C14       2.4965     1.2030    -0.0342 C.3    1 <0>       0.0700
   15 N15       3.6010     2.0719     0.3834 N.4    1 <0>      -0.3900
   16 H16       3.4922     2.3123     1.3573 H      1 <0>       0.4300
   17 C17       4.8779     1.3720     0.1893 C.3    1 <0>       0.0500
   18 C18       4.9416     0.1790     1.1078 C.ar   1 <0>      -0.1000
   19 C19       5.4671     0.3135     2.3790 C.ar   1 <0>      -0.1400
   20 C20       5.5260    -0.7821     3.2238 C.ar   1 <0>       0.1400
   21 F21       6.0398    -0.6504     4.4664 F      1 <0>      -0.1200
   22 C22       5.0580    -2.0121     2.7949 C.ar   1 <0>      -0.1600
   23 C23       4.5315    -2.1455     1.5217 C.ar   1 <0>       0.1500
   24 F24       4.0744    -3.3455     1.1018 F      1 <0>      -0.1100
   25 C25       4.4691    -1.0475     0.6803 C.ar   1 <0>      -0.1400
   26 C26       3.5790     3.2964    -0.4316 C.3    1 <0>       0.0000
   27 C27       2.3853     4.1484     0.0078 C.3    1 <0>      -0.1000
   28 H28      -2.0252     1.4004     0.0363 H      1 <0>       0.4300
   29 H29      -1.5675     5.9481     0.0534 H      1 <0>       0.1600
   30 H30      -3.7700     7.0948     0.0877 H      1 <0>       0.1600
   31 H31      -5.8304     5.7513     0.1117 H      1 <0>       0.1700
   32 H32      -3.6751     2.2065     0.0649 H      1 <0>       0.1600
   33 H33       2.4388     0.3471     0.6384 H      1 <0>       0.1400
   34 H34       2.6810     0.8499    -1.0488 H      1 <0>       0.1400
   35 H35       4.9558     1.0385    -0.8455 H      1 <0>       0.1500
   36 H36       5.7015     2.0492     0.4157 H      1 <0>       0.1500
   37 H37       5.8322     1.2733     2.7134 H      1 <0>       0.1500
   38 H38       5.1040    -2.8672     3.4530 H      1 <0>       0.1600
   39 H39       4.0581    -1.1513    -0.3130 H      1 <0>       0.1500
   40 H40       4.5023     3.8550    -0.2779 H      1 <0>       0.1500
   41 H41       3.4784     3.0334    -1.4846 H      1 <0>       0.1400
   42 H42       2.2567     4.9779    -0.6876 H      1 <0>       0.1400
   43 H43       2.5687     4.5406     1.0081 H      1 <0>       0.1200
@<TRIPOS>BOND
   1    1    2 2
   2    2   13 1
   3    2    3 am
   4    3    4 1
   5    3   28 1
   6    4    5 1
   7    4   11 2
   8    5   10 ar
   9    5    6 ar
  10    6    7 ar
  11    6   29 1
  12    7    8 ar
  13    7   30 1
  14    8    9 ar
  15    8   31 1
  16    9   10 ar
  17   10   32 1
  18   11   12 1
  19   12   27 1
  20   12   13 2
  21   13   14 1
  22   14   15 1
  23   14   33 1
  24   14   34 1
  25   15   16 1
  26   15   17 1
  27   15   26 1
  28   17   18 1
  29   17   35 1
  30   17   36 1
  31   18   25 ar
  32   18   19 ar
  33   19   20 ar
  34   19   37 1
  35   20   21 1
  36   20   22 ar
  37   22   23 ar
  38   22   38 1
  39   23   24 1
  40   23   25 ar
  41   25   39 1
  42   26   27 1
  43   26   40 1
  44   26   41 1
  45   27   42 1
  46   27   43 1

@<TRIPOS>MOLECULE
ZINC000012122036
  43   46    0    0    0
SMALL
USER_CHARGES
NO_NAME
@<TRIPOS>ATOM
    1 O1        0.0021    -0.0041     0.0020 O.2    1 <0>      -0.5100
    2 C2       -0.0145     1.2156     0.0087 C.2    1 <0>       0.5400
    3 N3       -1.1853     1.8855     0.0291 N.am   1 <0>      -0.6300
    4 C4       -1.1805     3.2484     0.0334 C.2    1 <0>       0.5000
    5 C5       -2.4639     3.9796     0.0580 C.ar   1 <0>      -0.1600
    6 C6       -2.4859     5.3797     0.0570 C.ar   1 <0>       0.0000
    7 C7       -3.7144     6.0163     0.0807 C.ar   1 <0>      -0.1700
    8 C8       -4.8702     5.2568     0.1043 C.ar   1 <0>       0.1500
    9 N9       -4.8193     3.9382     0.1051 N.ar   1 <0>      -0.4800
   10 C10      -3.6757     3.2864     0.0769 C.ar   1 <0>       0.1500
   11 N11      -0.0518     3.9231     0.0163 N.2    1 <0>      -0.5300
   12 C12       1.1340     3.3077    -0.0035 C.2    1 <0>       0.2200
   13 C13       1.1917     1.9500     0.0012 C.2    1 <0>      -0.3200
   14 C14       2.4970     1.2029    -0.0085 C.3    1 <0>       0.0700
   15 N15       3.5871     2.0728    -0.4604 N.4    1 <0>      -0.3900
   16 H16       3.4460     2.3154    -1.4296 H      1 <0>       0.4300
   17 C17       4.8696     1.3725    -0.3103 C.3    1 <0>       0.0500
   18 C18       4.9027     0.1816    -1.2331 C.ar   1 <0>      -0.1000
   19 C19       4.4394    -1.0446    -0.7949 C.ar   1 <0>      -0.1400
   20 C20       4.4693    -2.1396    -1.6420 C.ar   1 <0>       0.1500
   21 F21       4.0163    -3.3381    -1.2134 F      1 <0>      -0.1100
   22 C22       4.9631    -2.0057    -2.9282 C.ar   1 <0>      -0.1600
   23 C23       5.4265    -0.7771    -3.3661 C.ar   1 <0>       0.1500
   24 F24       5.9087    -0.6450    -4.6211 F      1 <0>      -0.1200
   25 C25       5.3911     0.3176    -2.5188 C.ar   1 <0>      -0.1400
   26 C26       3.5922     3.2954     0.3577 C.3    1 <0>       0.0000
   27 C27       2.3848     4.1486    -0.0267 C.3    1 <0>      -0.1000
   28 H28      -2.0252     1.4003     0.0404 H      1 <0>       0.4300
   29 H29      -1.5678     5.9482     0.0386 H      1 <0>       0.1600
   30 H30      -3.7701     7.0948     0.0810 H      1 <0>       0.1600
   31 H31      -5.8302     5.7512     0.1228 H      1 <0>       0.1700
   32 H32      -3.6748     2.2064     0.0782 H      1 <0>       0.1600
   33 H33       2.7149     0.8475     0.9987 H      1 <0>       0.1400
   34 H34       2.4169     0.3486    -0.6807 H      1 <0>       0.1400
   35 H35       5.6853     2.0502    -0.5623 H      1 <0>       0.1500
   36 H36       4.9817     1.0366     0.7206 H      1 <0>       0.1500
   37 H37       4.0541    -1.1488     0.2086 H      1 <0>       0.1500
   38 H38       4.9871    -2.8593    -3.5894 H      1 <0>       0.1600
   39 H39       5.7523     1.2764    -2.8604 H      1 <0>       0.1500
   40 H40       3.5264     3.0300     1.4128 H      1 <0>       0.1400
   41 H41       4.5098     3.8544     0.1747 H      1 <0>       0.1500
   42 H42       2.5273     4.5463    -1.0315 H      1 <0>       0.1200
   43 H43       2.2855     4.9742     0.6779 H      1 <0>       0.1400
@<TRIPOS>BOND
   1    1    2 2
   2    2   13 1
   3    2    3 am
   4    3    4 1
   5    3   28 1
   6    4    5 1
   7    4   11 2
   8    5   10 ar
   9    5    6 ar
  10    6    7 ar
  11    6   29 1
  12    7    8 ar
  13    7   30 1
  14    8    9 ar
  15    8   31 1
  16    9   10 ar
  17   10   32 1
  18   11   12 1
  19   12   27 1
  20   12   13 2
  21   13   14 1
  22   14   15 1
  23   14   33 1
  24   14   34 1
  25   15   16 1
  26   15   17 1
  27   15   26 1
  28   17   18 1
  29   17   35 1
  30   17   36 1
  31   18   25 ar
  32   18   19 ar
  33   19   20 ar
  34   19   37 1
  35   20   21 1
  36   20   22 ar
  37   22   23 ar
  38   22   38 1
  39   23   24 1
  40   23   25 ar
  41   25   39 1
  42   26   27 1
  43   26   40 1
  44   26   41 1
  45   27   42 1
  46   27   43 1
@<TRIPOS>MOLECULE
ZINC000020302019
26    27    1     0     0
SMALL
USER_CHARGES
@<TRIPOS>ATOM
1      N1      0.0175   -1.1399   -0.0042 N.1      1 ZINC000020302019   -0.4200
2      C2      0.0021   -0.0041    0.0020 C.1      1 ZINC000020302019    0.2600
3      C3     -0.0173    1.4278    0.0099 C.ar     1 ZINC000020302019    0.0000
4      C4     -1.2340    2.1126    0.0310 C.ar     1 ZINC000020302019   -0.0900
5      C5     -1.2454    3.4920    0.0384 C.ar     1 ZINC000020302019   -0.0300
6      C6     -0.0549    4.1969    0.0246 C.ar     1 ZINC000020302019   -0.6000
7      S7     -0.0788    5.9587    0.0342 S.o2     1 ZINC000020302019    2.6200
8      O8      1.1572    6.3798   -0.5263 O.2      1 ZINC000020302019   -1.0100
9      O9     -1.3418    6.3457   -0.4896 O.2      1 ZINC000020302019   -1.0100
10     N10    -0.0621    6.4405    1.6185 N.pl3    1 ZINC000020302019   -1.0700
11     C11    -0.0760    7.7948    1.9335 C.ar     1 ZINC000020302019    0.4500
12     C12    -0.0561    8.1924    3.2662 C.ar     1 ZINC000020302019   -0.2100
13     C13    -0.0702    9.5429    3.5658 C.ar     1 ZINC000020302019   -0.0200
14     C14    -0.1038   10.4540    2.5178 C.ar     1 ZINC000020302019   -0.2500
15     Br15   -0.1238   12.3123    2.8676 Br       1 ZINC000020302019   -0.0900
16     C16    -0.1221    9.9884    1.2173 C.ar     1 ZINC000020302019    0.1900
17     N17    -0.1025    8.6940    0.9619 N.ar     1 ZINC000020302019   -0.5900
18     C18     1.1543    3.5247    0.0036 C.ar     1 ZINC000020302019   -0.0300
19     C19     1.1804    2.1455    0.0023 C.ar     1 ZINC000020302019   -0.0900
20     H20    -2.1640    1.5635    0.0411 H        1 ZINC000020302019    0.1400
21     H21    -2.1858    4.0229    0.0548 H        1 ZINC000020302019    0.1500
22     H22    -0.0303    7.4568    4.0564 H        1 ZINC000020302019    0.1300
23     H23    -0.0557    9.8812    4.5913 H        1 ZINC000020302019    0.1200
24     H24    -0.1486   10.6929    0.3991 H        1 ZINC000020302019    0.1400
25     H25     2.0799    4.0811   -0.0075 H        1 ZINC000020302019    0.1500
26     H26     2.1249    1.6220   -0.0137 H        1 ZINC000020302019    0.1400
@<TRIPOS>BOND
1     1     2     3
2     2     3     1
3     3     19    ar
4     3     4     ar
5     4     5     ar
6     4     20    1
7     5     6     ar
8     5     21    1
9     6     7     1
10    6     18    ar
11    7     8     2
12    7     9     2
13    7     10    1
14    10    11    1
15    11    17    ar
16    11    12    ar
17    12    13    ar
18    12    22    1
19    13    14    ar
20    13    23    1
21    14    15    1
22    14    16    ar
23    16    17    ar
24    16    24    1
25    18    19    ar
26    18    25    1
27    19    26    1
@<TRIPOS>SUBSTRUCTURE
1   ZINC000020302019 1     RESIDUE    1   A     ZIN   1

@<TRIPOS>MOLECULE
ZINC000020302019
27    28    1     0     0
SMALL
USER_CHARGES
@<TRIPOS>ATOM
1      N1      0.0175   -1.1399   -0.0042 N.1      1 ZINC000020302019   -0.3900
2      C2      0.0021   -0.0041    0.0020 C.1      1 ZINC000020302019    0.2400
3      C3     -0.0173    1.4278    0.0099 C.ar     1 ZINC000020302019    0.0400
4      C4     -1.2340    2.1126    0.0310 C.ar     1 ZINC000020302019   -0.1000
5      C5     -1.2454    3.4920    0.0384 C.ar     1 ZINC000020302019   -0.0200
6      C6     -0.0549    4.1969    0.0246 C.ar     1 ZINC000020302019   -0.6500
7      S7     -0.0788    5.9587    0.0342 S.o2     1 ZINC000020302019    2.6900
8      O8      1.1572    6.3798   -0.5263 O.2      1 ZINC000020302019   -0.9200
9      O9     -1.3418    6.3457   -0.4896 O.2      1 ZINC000020302019   -0.9400
10     N10    -0.0621    6.4405    1.6185 N.am     1 ZINC000020302019   -1.0300
11     C11     1.0449    6.1708    2.4155 C.ar     1 ZINC000020302019    0.3900
12     C12     1.0498    6.5734    3.7469 C.ar     1 ZINC000020302019   -0.1900
13     C13     2.1575    6.2988    4.5289 C.ar     1 ZINC000020302019   -0.0100
14     C14     3.2274    5.6280    3.9503 C.ar     1 ZINC000020302019   -0.1800
15     Br15    4.7674    5.2254    4.9712 Br       1 ZINC000020302019   -0.0200
16     C16     3.1545    5.2576    2.6214 C.ar     1 ZINC000020302019    0.1800
17     N17     2.0824    5.5284    1.9016 N.ar     1 ZINC000020302019   -0.5200
18     C18     1.1543    3.5247    0.0036 C.ar     1 ZINC000020302019    0.0000
19     C19     1.1804    2.1455    0.0023 C.ar     1 ZINC000020302019   -0.1000
20     H20    -2.1640    1.5635    0.0411 H        1 ZINC000020302019    0.1400
21     H21    -2.1858    4.0229    0.0548 H        1 ZINC000020302019    0.1500
22     H22    -0.8246    6.9108    1.9904 H        1 ZINC000020302019    0.4400
23     H23     0.2005    7.0937    4.1644 H        1 ZINC000020302019    0.1500
24     H24     2.1898    6.5996    5.5657 H        1 ZINC000020302019    0.1500
25     H25     3.9840    4.7361    2.1671 H        1 ZINC000020302019    0.1800
26     H26     2.0799    4.0811   -0.0075 H        1 ZINC000020302019    0.1600
27     H27     2.1249    1.6220   -0.0137 H        1 ZINC000020302019    0.1500
@<TRIPOS>BOND
1     1     2     3
2     2     3     1
3     3     19    ar
4     3     4     ar
5     4     5     ar
6     4     20    1
7     5     6     ar
8     5     21    1
9     6     7     1
10    6     18    ar
11    7     8     2
12    7     9     2
13    7     10    am
14    10    11    1
15    10    22    1
16    11    17    ar
17    11    12    ar
18    12    13    ar
19    12    23    1
20    13    14    ar
21    13    24    1
22    14    15    1
23    14    16    ar
24    16    17    ar
25    16    25    1
26    18    19    ar
27    18    26    1
28    19    27    1
@<TRIPOS>SUBSTRUCTURE
1   ZINC000020302019 1     RESIDUE    1   A     ZIN   1
@<TRIPOS>MOLECULE
ZINC000020573205
  50   53    0    0    0
SMALL
USER_CHARGES
NO_NAME
@<TRIPOS>ATOM
    1 C1       -0.0863     1.5093     0.0161 C.3    1 <0>      -0.1200
    2 C2       -0.0721     0.0024     0.0056 C.ar   1 <0>       0.0600
    3 C3       -0.0915    -0.6737    -1.1813 C.ar   1 <0>      -0.2800
    4 C4       -0.0784    -2.0660    -1.1934 C.ar   1 <0>       0.3300
    5 O5       -0.0978    -2.7287    -2.3777 O.3    1 <0>      -0.6800
    6 C6       -0.0452    -2.7808    -0.0070 C.ar   1 <0>      -0.2500
    7 C7       -0.0314    -4.2875    -0.0353 C.3    1 <0>       0.1300
    8 N8        1.3576    -4.7638    -0.0752 N.3    1 <0>      -0.5300
    9 C9        2.1418    -4.0180    -1.0695 C.3    1 <0>       0.0700
   10 C10       3.5975    -4.4882    -1.0242 C.3    1 <0>       0.0600
   11 N11       3.6517    -5.9324    -1.2906 N.3    1 <0>      -0.5400
   12 C12       5.0407    -6.4087    -1.3305 C.3    1 <0>       0.0300
   13 C13       2.8675    -6.6782    -0.2963 C.3    1 <0>       0.0600
   14 C14       1.4118    -6.2080    -0.3416 C.3    1 <0>       0.0600
   15 C15      -0.0243    -2.1086     1.2089 C.ar   1 <0>       0.1900
   16 C16      -0.0333    -0.7046     1.2082 C.ar   1 <0>      -0.3900
   17 C17      -0.0066    -0.2880     2.6220 C.2    1 <0>       0.4100
   18 O18      -0.0051     0.8470     3.0653 O.2    1 <0>      -0.4700
   19 C19       0.0172    -1.5509     3.3779 C.2    1 <0>       0.0100
   20 C20       0.0461    -1.6765     4.7278 C.2    1 <0>      -0.0900
   21 C21      -0.0487    -3.0075     5.3443 C.ar   1 <0>      -0.0500
   22 C22      -0.1537    -3.1331     6.7342 C.ar   1 <0>      -0.1100
   23 C23      -0.2421    -4.3851     7.3045 C.ar   1 <0>      -0.1300
   24 C24      -0.2268    -5.5160     6.5064 C.ar   1 <0>      -0.1200
   25 C25      -0.1228    -5.4004     5.1309 C.ar   1 <0>      -0.1200
   26 C26      -0.0402    -4.1556     4.5442 C.ar   1 <0>      -0.1000
   27 O27       0.0087    -2.5640     2.4802 O.3    1 <0>      -0.2200
   28 H28       0.9375     1.8825    -0.0087 H      1 <0>       0.0700
   29 H29      -0.6271     1.8737    -0.8573 H      1 <0>       0.0600
   30 H30      -0.5796     1.8617     0.9220 H      1 <0>       0.0700
   31 H31      -0.1174    -0.1271    -2.1124 H      1 <0>       0.1100
   32 H32      -0.5219    -4.6722     0.8588 H      1 <0>       0.0600
   33 H33      -0.5616    -4.6391    -0.9204 H      1 <0>       0.0400
   34 H34       1.7326    -4.1969    -2.0638 H      1 <0>       0.0600
   35 H35       2.0965    -2.9526    -0.8436 H      1 <0>       0.0800
   36 H36       4.1750    -3.9570    -1.7808 H      1 <0>       0.0700
   37 H37       4.0150    -4.2844    -0.0382 H      1 <0>       0.0300
   38 H38       5.5199    -6.2120    -0.3714 H      1 <0>       0.0200
   39 H39       5.0518    -7.4804    -1.5292 H      1 <0>       0.0600
   40 H40       5.5811    -5.8871    -2.1204 H      1 <0>       0.0700
   41 H41       2.9128    -7.7436    -0.5222 H      1 <0>       0.0700
   42 H42       3.2767    -6.4993     0.6980 H      1 <0>       0.0400
   43 H43       0.8343    -6.7392     0.4150 H      1 <0>       0.0700
   44 H44       0.9943    -6.4118    -1.3276 H      1 <0>       0.0400
   45 H45       0.1387    -0.7985     5.3500 H      1 <0>       0.1500
   46 H46      -0.1650    -2.2518     7.3583 H      1 <0>       0.1200
   47 H47      -0.3232    -4.4839     8.3769 H      1 <0>       0.1200
   48 H48      -0.2961    -6.4940     6.9594 H      1 <0>       0.1200
   49 H49      -0.1112    -6.2877     4.5152 H      1 <0>       0.1200
   50 H50       0.0406    -4.0671     3.4709 H      1 <0>       0.1500
@<TRIPOS>BOND
   1    1    2 1
   2    1   28 1
   3    1   29 1
   4    1   30 1
   5    2   16 ar
   6    2    3 ar
   7    3    4 ar
   8    3   31 1
   9    4    5 1
  10    4    6 ar
  11    6    7 1
  12    6   15 ar
  13    7    8 1
  14    7   32 1
  15    7   33 1
  16    8   14 1
  17    8    9 1
  18    9   10 1
  19    9   34 1
  20    9   35 1
  21   10   11 1
  22   10   36 1
  23   10   37 1
  24   11   12 1
  25   11   13 1
  26   12   38 1
  27   12   39 1
  28   12   40 1
  29   13   14 1
  30   13   41 1
  31   13   42 1
  32   14   43 1
  33   14   44 1
  34   15   27 1
  35   15   16 ar
  36   16   17 1
  37   17   18 2
  38   17   19 1
  39   19   20 2
  40   19   27 1
  41   20   21 1
  42   20   45 1
  43   21   26 ar
  44   21   22 ar
  45   22   23 ar
  46   22   46 1
  47   23   24 ar
  48   23   47 1
  49   24   25 ar
  50   24   48 1
  51   25   26 ar
  52   25   49 1
  53   26   50 1

@<TRIPOS>MOLECULE
ZINC000020573205
  51   54    0    0    0
SMALL
USER_CHARGES
NO_NAME
@<TRIPOS>ATOM
    1 C1       -0.0863     1.5093     0.0161 C.3    1 <0>      -0.1300
    2 C2       -0.0721     0.0024     0.0056 C.ar   1 <0>       0.0500
    3 C3       -0.0915    -0.6737    -1.1813 C.ar   1 <0>      -0.1900
    4 C4       -0.0784    -2.0660    -1.1934 C.ar   1 <0>       0.1900
    5 O5       -0.0978    -2.7287    -2.3777 O.3    1 <0>      -0.4900
    6 C6       -0.0452    -2.7808    -0.0070 C.ar   1 <0>      -0.1400
    7 C7       -0.0314    -4.2875    -0.0353 C.3    1 <0>       0.1000
    8 N8        1.3576    -4.7638    -0.0752 N.3    1 <0>      -0.5300
    9 C9        2.1418    -4.0180    -1.0695 C.3    1 <0>       0.0500
   10 C10       3.5975    -4.4882    -1.0242 C.3    1 <0>       0.0600
   11 N11       3.6517    -5.9324    -1.2906 N.3    1 <0>      -0.5500
   12 C12       5.0407    -6.4087    -1.3305 C.3    1 <0>       0.0200
   13 C13       2.8675    -6.6782    -0.2963 C.3    1 <0>       0.0600
   14 C14       1.4118    -6.2080    -0.3416 C.3    1 <0>       0.0600
   15 C15      -0.0243    -2.1086     1.2089 C.ar   1 <0>       0.1800
   16 C16      -0.0333    -0.7046     1.2082 C.ar   1 <0>      -0.2800
   17 C17      -0.0066    -0.2880     2.6220 C.2    1 <0>       0.4200
   18 O18      -0.0051     0.8470     3.0653 O.2    1 <0>      -0.4200
   19 C19       0.0172    -1.5509     3.3779 C.2    1 <0>      -0.0400
   20 C20       0.0461    -1.6765     4.7278 C.2    1 <0>      -0.0100
   21 C21      -0.0487    -3.0075     5.3443 C.ar   1 <0>      -0.0900
   22 C22      -0.1537    -3.1331     6.7342 C.ar   1 <0>      -0.0900
   23 C23      -0.2421    -4.3851     7.3045 C.ar   1 <0>      -0.1300
   24 C24      -0.2268    -5.5160     6.5064 C.ar   1 <0>      -0.1000
   25 C25      -0.1228    -5.4004     5.1309 C.ar   1 <0>      -0.1200
   26 C26      -0.0402    -4.1556     4.5442 C.ar   1 <0>      -0.0900
   27 O27       0.0087    -2.5640     2.4802 O.3    1 <0>      -0.2000
   28 H28       0.9375     1.8825    -0.0087 H      1 <0>       0.0800
   29 H29      -0.6271     1.8737    -0.8573 H      1 <0>       0.0800
   30 H30      -0.5796     1.8617     0.9220 H      1 <0>       0.0800
   31 H31      -0.1174    -0.1271    -2.1124 H      1 <0>       0.1500
   32 H32       0.7797    -2.9123    -2.7402 H      1 <0>       0.4000
   33 H33      -0.5219    -4.6722     0.8588 H      1 <0>       0.0900
   34 H34      -0.5616    -4.6391    -0.9204 H      1 <0>       0.0600
   35 H35       1.7326    -4.1969    -2.0638 H      1 <0>       0.0400
   36 H36       2.0965    -2.9526    -0.8436 H      1 <0>       0.0800
   37 H37       4.1750    -3.9570    -1.7808 H      1 <0>       0.0800
   38 H38       4.0150    -4.2844    -0.0382 H      1 <0>       0.0400
   39 H39       5.5199    -6.2120    -0.3714 H      1 <0>       0.0300
   40 H40       5.0518    -7.4804    -1.5292 H      1 <0>       0.0700
   41 H41       5.5811    -5.8871    -2.1204 H      1 <0>       0.0700
   42 H42       2.9128    -7.7436    -0.5222 H      1 <0>       0.0800
   43 H43       3.2767    -6.4993     0.6980 H      1 <0>       0.0400
   44 H44       0.8343    -6.7392     0.4150 H      1 <0>       0.0800
   45 H45       0.9943    -6.4118    -1.3276 H      1 <0>       0.0500
   46 H46       0.1387    -0.7985     5.3500 H      1 <0>       0.1600
   47 H47      -0.1650    -2.2518     7.3583 H      1 <0>       0.1300
   48 H48      -0.3232    -4.4839     8.3769 H      1 <0>       0.1300
   49 H49      -0.2961    -6.4940     6.9594 H      1 <0>       0.1200
   50 H50      -0.1112    -6.2877     4.5152 H      1 <0>       0.1300
   51 H51       0.0406    -4.0671     3.4709 H      1 <0>       0.1500
@<TRIPOS>BOND
   1    1    2 1
   2    1   28 1
   3    1   29 1
   4    1   30 1
   5    2   16 ar
   6    2    3 ar
   7    3    4 ar
   8    3   31 1
   9    4    5 1
  10    4    6 ar
  11    5   32 1
  12    6    7 1
  13    6   15 ar
  14    7    8 1
  15    7   33 1
  16    7   34 1
  17    8   14 1
  18    8    9 1
  19    9   10 1
  20    9   35 1
  21    9   36 1
  22   10   11 1
  23   10   37 1
  24   10   38 1
  25   11   12 1
  26   11   13 1
  27   12   39 1
  28   12   40 1
  29   12   41 1
  30   13   14 1
  31   13   42 1
  32   13   43 1
  33   14   44 1
  34   14   45 1
  35   15   27 1
  36   15   16 ar
  37   16   17 1
  38   17   18 2
  39   17   19 1
  40   19   20 2
  41   19   27 1
  42   20   21 1
  43   20   46 1
  44   21   26 ar
  45   21   22 ar
  46   22   23 ar
  47   22   47 1
  48   23   24 ar
  49   23   48 1
  50   24   25 ar
  51   24   49 1
  52   25   26 ar
  53   25   50 1
  54   26   51 1

@<TRIPOS>MOLECULE
ZINC000020573205
  52   55    0    0    0
SMALL
USER_CHARGES
NO_NAME
@<TRIPOS>ATOM
    1 C1       -0.0863     1.5093     0.0161 C.3    1 <0>      -0.1400
    2 C2       -0.0721     0.0024     0.0056 C.ar   1 <0>       0.0600
    3 C3       -0.0915    -0.6737    -1.1813 C.ar   1 <0>      -0.1900
    4 C4       -0.0784    -2.0660    -1.1934 C.ar   1 <0>       0.1800
    5 O5       -0.0978    -2.7287    -2.3777 O.3    1 <0>      -0.4800
    6 C6       -0.0452    -2.7808    -0.0070 C.ar   1 <0>      -0.1600
    7 C7       -0.0314    -4.2875    -0.0353 C.3    1 <0>       0.1100
    8 N8        1.3576    -4.7638    -0.0752 N.3    1 <0>      -0.5300
    9 C9        2.1412    -4.0195    -1.0713 C.3    1 <0>       0.0100
   10 C10       3.5925    -4.5037    -1.0396 C.3    1 <0>       0.0000
   11 N11       3.6354    -5.9423    -1.3330 N.4    1 <0>      -0.3900
   12 H12       3.2339    -6.1119    -2.2430 H      1 <0>       0.4200
   13 C13       5.0303    -6.4031    -1.3199 C.3    1 <0>      -0.0500
   14 C14       2.8691    -6.6743    -0.3159 C.3    1 <0>       0.0000
   15 C15       1.4118    -6.2082    -0.3416 C.3    1 <0>       0.0200
   16 C16      -0.0243    -2.1086     1.2089 C.ar   1 <0>       0.1800
   17 C17      -0.0333    -0.7046     1.2082 C.ar   1 <0>      -0.2700
   18 C18      -0.0066    -0.2880     2.6220 C.2    1 <0>       0.4100
   19 O19      -0.0051     0.8470     3.0653 O.2    1 <0>      -0.4100
   20 C20       0.0172    -1.5509     3.3779 C.2    1 <0>      -0.0500
   21 C21       0.0461    -1.6765     4.7278 C.2    1 <0>       0.0000
   22 C22      -0.0487    -3.0075     5.3443 C.ar   1 <0>      -0.0900
   23 C23      -0.1537    -3.1331     6.7342 C.ar   1 <0>      -0.0900
   24 C24      -0.2421    -4.3851     7.3045 C.ar   1 <0>      -0.1200
   25 C25      -0.2268    -5.5160     6.5064 C.ar   1 <0>      -0.1000
   26 C26      -0.1228    -5.4004     5.1309 C.ar   1 <0>      -0.1300
   27 C27      -0.0402    -4.1556     4.5442 C.ar   1 <0>      -0.0900
   28 O28       0.0087    -2.5640     2.4802 O.3    1 <0>      -0.2000
   29 H29       0.9375     1.8825    -0.0087 H      1 <0>       0.0900
   30 H30      -0.6271     1.8737    -0.8573 H      1 <0>       0.0800
   31 H31      -0.5796     1.8617     0.9220 H      1 <0>       0.0900
   32 H32      -0.1174    -0.1271    -2.1124 H      1 <0>       0.1500
   33 H33       0.7797    -2.9123    -2.7402 H      1 <0>       0.3900
   34 H34      -0.5219    -4.6722     0.8588 H      1 <0>       0.1000
   35 H35      -0.5616    -4.6391    -0.9204 H      1 <0>       0.0700
   36 H36       1.7229    -4.1889    -2.0635 H      1 <0>       0.0600
   37 H37       2.1078    -2.9551    -0.8390 H      1 <0>       0.1200
   38 H38       4.1724    -3.9629    -1.7876 H      1 <0>       0.1400
   39 H39       4.0147    -4.3217    -0.0513 H      1 <0>       0.1400
   40 H40       5.4643    -6.2195    -0.3371 H      1 <0>       0.1200
   41 H41       5.0623    -7.4706    -1.5376 H      1 <0>       0.1300
   42 H42       5.5991    -5.8610    -2.0754 H      1 <0>       0.1200
   43 H43       2.9126    -7.7427    -0.5274 H      1 <0>       0.1400
   44 H44       3.2950    -6.4812     0.6687 H      1 <0>       0.1400
   45 H45       0.8461    -6.7405     0.4231 H      1 <0>       0.1300
   46 H46       0.9815    -6.4136    -1.3218 H      1 <0>       0.0600
   47 H47       0.1387    -0.7985     5.3500 H      1 <0>       0.1700
   48 H48      -0.1650    -2.2518     7.3583 H      1 <0>       0.1300
   49 H49      -0.3232    -4.4839     8.3769 H      1 <0>       0.1300
   50 H50      -0.2961    -6.4940     6.9594 H      1 <0>       0.1300
   51 H51      -0.1112    -6.2877     4.5152 H      1 <0>       0.1200
   52 H52       0.0406    -4.0671     3.4709 H      1 <0>       0.1400
@<TRIPOS>BOND
   1    1    2 1
   2    1   29 1
   3    1   30 1
   4    1   31 1
   5    2   17 ar
   6    2    3 ar
   7    3    4 ar
   8    3   32 1
   9    4    5 1
  10    4    6 ar
  11    5   33 1
  12    6    7 1
  13    6   16 ar
  14    7    8 1
  15    7   34 1
  16    7   35 1
  17    8   15 1
  18    8    9 1
  19    9   10 1
  20    9   36 1
  21    9   37 1
  22   10   11 1
  23   10   38 1
  24   10   39 1
  25   11   12 1
  26   11   13 1
  27   11   14 1
  28   13   40 1
  29   13   41 1
  30   13   42 1
  31   14   15 1
  32   14   43 1
  33   14   44 1
  34   15   45 1
  35   15   46 1
  36   16   28 1
  37   16   17 ar
  38   17   18 1
  39   18   19 2
  40   18   20 1
  41   20   21 2
  42   20   28 1
  43   21   22 1
  44   21   47 1
  45   22   27 ar
  46   22   23 ar
  47   23   24 ar
  48   23   48 1
  49   24   25 ar
  50   24   49 1
  51   25   26 ar
  52   25   50 1
  53   26   27 ar
  54   26   51 1
  55   27   52 1
@<TRIPOS>MOLECULE
ZINC000020608006
34    37    1     0     0
SMALL
USER_CHARGES
@<TRIPOS>ATOM
1      O1      0.0026   -0.0039   -0.0171 O.2      1 ZINC000020608006   -0.4500
2      C2     -0.0141    1.2123   -0.0035 C.2      1 ZINC000020608006    0.5500
3      N3     -1.1794    1.8909   -0.0866 N.am     1 ZINC000020608006   -0.6100
4      C4     -1.2037    3.2328   -0.0719 C.2      1 ZINC000020608006    0.5300
5      S5     -2.7177    4.0247   -0.1810 S.2      1 ZINC000020608006   -0.4900
6      N6     -0.0928    3.9822    0.0250 N.am     1 ZINC000020608006   -0.4500
7      C7     -0.2033    5.4429    0.0349 C.3      1 ZINC000020608006    0.0600
8      C8      0.7459    6.2293   -0.8714 C.3      1 ZINC000020608006   -0.1500
9      C9     -0.7376    6.1195   -1.2291 C.3      1 ZINC000020608006   -0.1400
10     C10     1.1546    3.3899    0.1161 C.ar     1 ZINC000020608006    0.4100
11     N11     2.2542    4.1141    0.2115 N.ar     1 ZINC000020608006   -0.4700
12     C12     3.4525    3.5417    0.2985 C.ar     1 ZINC000020608006    0.3000
13     C13     4.6531    4.3904    0.4033 C.2      1 ZINC000020608006   -0.0200
14     C14     4.6702    5.7522    0.4269 C.2      1 ZINC000020608006   -0.1100
15     C15     6.0187    6.1384    0.5353 C.2      1 ZINC000020608006   -0.2200
16     C16     6.7528    5.0071    0.5722 C.2      1 ZINC000020608006    0.0100
17     O17     5.9247    3.9541    0.4982 O.3      1 ZINC000020608006   -0.1600
18     C18     3.5946    2.1499    0.2929 C.ar     1 ZINC000020608006   -0.1400
19     C19     2.4798    1.3584    0.1956 C.ar     1 ZINC000020608006   -0.0300
20     C20     2.5952   -0.1441    0.1871 C.3      1 ZINC000020608006    0.5200
21     F21     3.9420   -0.5090    0.2892 F        1 ZINC000020608006   -0.1700
22     F22     1.8855   -0.6725    1.2707 F        1 ZINC000020608006   -0.1600
23     F23     2.0654   -0.6458   -1.0066 F        1 ZINC000020608006   -0.1600
24     C24     1.2330    1.9831    0.1102 C.ar     1 ZINC000020608006   -0.2100
25     H25    -2.0128    1.3999   -0.1584 H        1 ZINC000020608006    0.4500
26     H26    -0.4679    5.8879    0.9941 H        1 ZINC000020608006    0.1500
27     H27     1.1062    7.1919   -0.5085 H        1 ZINC000020608006    0.1200
28     H28     1.4526    5.6598   -1.4750 H        1 ZINC000020608006    0.1000
29     H29    -1.0069    5.4778   -2.0680 H        1 ZINC000020608006    0.1000
30     H30    -1.3533    7.0099   -1.1015 H        1 ZINC000020608006    0.1200
31     H31     3.8143    6.4085    0.3724 H        1 ZINC000020608006    0.1600
32     H32     6.3952    7.1496    0.5798 H        1 ZINC000020608006    0.1600
33     H33     7.8286    4.9572    0.6528 H        1 ZINC000020608006    0.2200
34     H34     4.5750    1.7026    0.3643 H        1 ZINC000020608006    0.1700
@<TRIPOS>BOND
1     1     2     2
2     2     24    1
3     2     3     am
4     3     4     am
5     3     25    1
6     4     5     2
7     4     6     am
8     6     7     1
9     6     10    1
10    7     9     1
11    7     8     1
12    7     26    1
13    8     9     1
14    8     27    1
15    8     28    1
16    9     29    1
17    9     30    1
18    10    24    ar
19    10    11    ar
20    11    12    ar
21    12    13    1
22    12    18    ar
23    13    17    1
24    13    14    2
25    14    15    1
26    14    31    1
27    15    16    2
28    15    32    1
29    16    17    1
30    16    33    1
31    18    19    ar
32    18    34    1
33    19    20    1
34    19    24    ar
35    20    21    1
36    20    22    1
37    20    23    1
@<TRIPOS>SUBSTRUCTURE
1   ZINC000020608006 1     RESIDUE    1   A     ZIN   1
@<TRIPOS>MOLECULE
ZINC000030481950
55    59    1     0     0
SMALL
USER_CHARGES
@<TRIPOS>ATOM
1      C1      0.1168    1.4553    0.0028 C.3      1 ZINC000030481950    0.0800
2      N2      0.0558   -0.0085   -0.0015 N.am     1 ZINC000030481950   -0.6000
3      C3      0.1658   -0.7498    1.2573 C.3      1 ZINC000030481950    0.1200
4      C4     -1.2283   -0.9487    1.8556 C.3      1 ZINC000030481950   -0.0700
5      C5     -2.0970   -1.7373    0.8736 C.3      1 ZINC000030481950   -0.0900
6      C6     -3.4910   -1.9361    1.4719 C.3      1 ZINC000030481950   -0.0900
7      C7     -4.1313   -0.5722    1.7376 C.3      1 ZINC000030481950   -0.1100
8      C8     -3.2626    0.2164    2.7196 C.3      1 ZINC000030481950   -0.0800
9      C9     -3.1476   -0.5579    4.0343 C.3      1 ZINC000030481950   -0.1100
10     C10    -2.5074   -1.9218    3.7685 C.3      1 ZINC000030481950   -0.0800
11     C11    -3.3761   -2.7104    2.7865 C.3      1 ZINC000030481950   -0.1100
12     C12    -1.1133   -1.7230    3.1702 C.3      1 ZINC000030481950   -0.1000
13     C13    -1.8685    0.4152    2.1213 C.3      1 ZINC000030481950   -0.1000
14     C14    -0.1016   -0.6730   -1.1634 C.2      1 ZINC000030481950    0.5900
15     O15    -0.2252   -1.8831   -1.1601 O.2      1 ZINC000030481950   -0.5200
16     C16    -0.1239    0.0655   -2.4364 C.2      1 ZINC000030481950   -0.2500
17     C17     1.0559    0.4396   -3.0644 C.2      1 ZINC000030481950    0.0500
18     C18     0.9846    1.1454   -4.2846 C.2      1 ZINC000030481950   -0.2800
19     C19    -0.2404    1.4569   -4.8502 C.2      1 ZINC000030481950    0.2500
20     C20    -0.3356    2.1991   -6.1584 C.3      1 ZINC000030481950   -0.1100
21     C21     0.9299    3.0054   -6.4330 C.3      1 ZINC000030481950   -0.1100
22     C22     2.1475    2.0737   -6.3659 C.3      1 ZINC000030481950   -0.1700
23     C23     2.2356    1.5523   -4.9472 C.2      1 ZINC000030481950    0.4100
24     O24     3.3020    1.4726   -4.3745 O.2      1 ZINC000030481950   -0.4500
25     N25    -1.3872    1.0981   -4.2382 N.am     1 ZINC000030481950   -0.6000
26     C26    -1.3922    0.4206   -3.0784 C.2      1 ZINC000030481950    0.5400
27     O27    -2.4484    0.1112   -2.5565 O.2      1 ZINC000030481950   -0.5100
28     H28     1.1577    1.7756   -0.0409 H        1 ZINC000030481950    0.0600
29     H29    -0.4196    1.8438   -0.8629 H        1 ZINC000030481950    0.0700
30     H30    -0.3424    1.8354    0.9153 H        1 ZINC000030481950    0.0800
31     H31     0.6219   -1.7215    1.0680 H        1 ZINC000030481950    0.0900
32     H32     0.7847   -0.1881    1.9569 H        1 ZINC000030481950    0.0800
33     H33    -2.1789   -1.1857   -0.0630 H        1 ZINC000030481950    0.0700
34     H34    -1.6409   -2.7090    0.6842 H        1 ZINC000030481950    0.0600
35     H35    -4.1099   -2.4979    0.7722 H        1 ZINC000030481950    0.0700
36     H36    -4.2132   -0.0206    0.8010 H        1 ZINC000030481950    0.0600
37     H37    -5.1244   -0.7138    2.1638 H        1 ZINC000030481950    0.0600
38     H38    -3.7187    1.1881    2.9090 H        1 ZINC000030481950    0.0700
39     H39    -2.5287    0.0039    4.7339 H        1 ZINC000030481950    0.0600
40     H40    -4.1408   -0.6996    4.4605 H        1 ZINC000030481950    0.0600
41     H41    -2.4255   -2.4734    4.7051 H        1 ZINC000030481950    0.0700
42     H42    -4.3693   -2.8520    3.2127 H        1 ZINC000030481950    0.0600
43     H43    -2.9200   -3.6821    2.5972 H        1 ZINC000030481950    0.0600
44     H44    -0.6572   -2.6947    2.9809 H        1 ZINC000030481950    0.0600
45     H45    -0.4944   -1.1612    3.8698 H        1 ZINC000030481950    0.0600
46     H46    -1.2496    0.9770    2.8210 H        1 ZINC000030481950    0.0600
47     H47    -1.9504    0.9668    1.1848 H        1 ZINC000030481950    0.0600
48     H48     2.0124    0.1951   -2.6266 H        1 ZINC000030481950    0.1500
49     H49    -0.4837    1.4816   -6.9655 H        1 ZINC000030481950    0.1100
50     H50    -1.1893    2.8759   -6.1231 H        1 ZINC000030481950    0.1000
51     H51     0.8683    3.4530   -7.4250 H        1 ZINC000030481950    0.1000
52     H52     1.0308    3.7909   -5.6841 H        1 ZINC000030481950    0.0800
53     H53     2.0176    1.2427   -7.0591 H        1 ZINC000030481950    0.1100
54     H54     3.0528    2.6275   -6.6146 H        1 ZINC000030481950    0.1000
55     H55    -2.2336    1.3325   -4.6500 H        1 ZINC000030481950    0.4200
@<TRIPOS>BOND
1     1     2     1
2     1     28    1
3     1     29    1
4     1     30    1
5     2     3     1
6     2     14    am
7     3     4     1
8     3     31    1
9     3     32    1
10    4     12    1
11    4     13    1
12    4     5     1
13    5     6     1
14    5     33    1
15    5     34    1
16    6     11    1
17    6     7     1
18    6     35    1
19    7     8     1
20    7     36    1
21    7     37    1
22    8     9     1
23    8     13    1
24    8     38    1
25    9     10    1
26    9     39    1
27    9     40    1
28    10    11    1
29    10    12    1
30    10    41    1
31    11    42    1
32    11    43    1
33    12    44    1
34    12    45    1
35    13    46    1
36    13    47    1
37    14    15    2
38    14    16    1
39    16    26    1
40    16    17    2
41    17    18    1
42    17    48    1
43    18    23    1
44    18    19    2
45    19    20    1
46    19    25    1
47    20    21    1
48    20    49    1
49    20    50    1
50    21    22    1
51    21    51    1
52    21    52    1
53    22    23    1
54    22    53    1
55    22    54    1
56    23    24    2
57    25    26    am
58    25    55    1
59    26    27    2
@<TRIPOS>SUBSTRUCTURE
1   ZINC000030481950 1     RESIDUE    1   A     ZIN   1
@<TRIPOS>MOLECULE
ZINC000006730797
57    59    1     0     0
SMALL
USER_CHARGES
@<TRIPOS>ATOM
1      C1     -0.3687    1.3276    0.2718 C.3      1 ZINC000006730797   -0.1200
2      C2     -0.2735   -0.1753    0.2152 C.2      1 ZINC000006730797   -0.1000
3      C3      0.1192   -0.7172   -0.8928 C.2      1 ZINC000006730797   -0.1600
4      C4      0.4425    0.1934   -2.0492 C.3      1 ZINC000006730797   -0.1200
5      C5      0.2732   -2.1959   -1.0972 C.3      1 ZINC000006730797   -0.0600
6      C6     -0.4826   -2.9601   -0.0080 C.3      1 ZINC000006730797   -0.0800
7      H7     -1.5562   -2.8484   -0.1598 H        1 ZINC000006730797    0.1000
8      C8     -0.1123   -4.4199   -0.0635 C.2      1 ZINC000006730797    0.5400
9      O9      0.7683   -4.8497    0.6511 O.2      1 ZINC000006730797   -0.4900
10     N10    -0.7598   -5.2477   -0.9073 N.am     1 ZINC000006730797   -0.6400
11     C11    -1.8960   -4.7712   -1.7111 C.3      1 ZINC000006730797    0.0900
12     C12    -1.6577   -5.1677   -3.1719 C.3      1 ZINC000006730797   -0.0300
13     N13    -1.4224   -6.6148   -3.2531 N.4      1 ZINC000006730797   -0.3800
14     H14    -2.1981   -7.1045   -2.8328 H        1 ZINC000006730797    0.4200
15     C15    -1.3012   -7.0110   -4.6625 C.3      1 ZINC000006730797    0.0300
16     C16    -1.0560   -8.5188   -4.7491 C.3      1 ZINC000006730797   -0.1400
17     C17    -0.9298   -8.9314   -6.2170 C.3      1 ZINC000006730797   -0.1200
18     C18    -2.2217   -8.5815   -6.9580 C.3      1 ZINC000006730797   -0.1300
19     C19    -2.4670   -7.0737   -6.8714 C.3      1 ZINC000006730797   -0.1200
20     C20    -2.5932   -6.6610   -5.4035 C.3      1 ZINC000006730797   -0.1400
21     C21    -0.1847   -6.9609   -2.5429 C.3      1 ZINC000006730797   -0.0200
22     C22    -0.3464   -6.6517   -1.0552 C.3      1 ZINC000006730797    0.0900
23     C23    -0.0910   -2.3758    1.3552 C.3      1 ZINC000006730797   -0.1400
24     H24     0.9949   -2.3566    1.4473 H        1 ZINC000006730797    0.0700
25     C25    -0.6779   -3.2211    2.4561 C.2      1 ZINC000006730797    0.5000
26     O26    -0.0239   -3.4577    3.4575 O.co2    1 ZINC000006730797   -0.6800
27     O27    -1.8067   -3.6684    2.3455 O.co2    1 ZINC000006730797   -0.7100
28     C28    -0.6341   -0.9502    1.4487 C.3      1 ZINC000006730797   -0.0700
29     H29    -0.7875    1.6293    1.2318 H        1 ZINC000006730797    0.0600
30     H30     0.6257    1.7593    0.1575 H        1 ZINC000006730797    0.0700
31     H31    -1.0131    1.6815   -0.5330 H        1 ZINC000006730797    0.0600
32     H32     0.3736    1.2316   -1.7244 H        1 ZINC000006730797    0.0700
33     H33     1.4537   -0.0109   -2.4010 H        1 ZINC000006730797    0.0600
34     H34    -0.2661    0.0182   -2.8587 H        1 ZINC000006730797    0.0600
35     H35    -0.1265   -2.4692   -2.0738 H        1 ZINC000006730797    0.0600
36     H36     1.3303   -2.4583   -1.0554 H        1 ZINC000006730797    0.0700
37     H37    -2.8168   -5.2310   -1.3523 H        1 ZINC000006730797    0.0900
38     H38    -1.9703   -3.6865   -1.6335 H        1 ZINC000006730797    0.1300
39     H39    -2.5335   -4.9079   -3.7665 H        1 ZINC000006730797    0.1400
40     H40    -0.7870   -4.6358   -3.5555 H        1 ZINC000006730797    0.1300
41     H41    -0.4656   -6.4802   -5.1185 H        1 ZINC000006730797    0.1300
42     H42    -0.1356   -8.7681   -4.2211 H        1 ZINC000006730797    0.0900
43     H43    -1.8916   -9.0496   -4.2930 H        1 ZINC000006730797    0.0900
44     H44    -0.0941   -8.4006   -6.6730 H        1 ZINC000006730797    0.0700
45     H45    -0.7550  -10.0056   -6.2787 H        1 ZINC000006730797    0.0800
46     H46    -2.1318   -8.8755   -8.0038 H        1 ZINC000006730797    0.0800
47     H47    -3.0574   -9.1123   -6.5020 H        1 ZINC000006730797    0.0700
48     H48    -1.6313   -6.5429   -7.3275 H        1 ZINC000006730797    0.0700
49     H49    -3.3874   -6.8244   -7.3994 H        1 ZINC000006730797    0.0800
50     H50    -3.4289   -7.1919   -4.9475 H        1 ZINC000006730797    0.0900
51     H51    -2.7679   -5.5869   -5.3418 H        1 ZINC000006730797    0.0900
52     H52     0.0249   -8.0225   -2.6740 H        1 ZINC000006730797    0.1400
53     H53     0.6414   -6.3747   -2.9455 H        1 ZINC000006730797    0.1300
54     H54     0.6021   -6.8118   -0.5426 H        1 ZINC000006730797    0.1300
55     H55    -1.1112   -7.2999   -0.6274 H        1 ZINC000006730797    0.0900
56     H56    -0.2119   -0.4595    2.3256 H        1 ZINC000006730797    0.0800
57     H57    -1.7196   -0.9825    1.5428 H        1 ZINC000006730797    0.0800
@<TRIPOS>BOND
1     1     2     1
2     1     29    1
3     1     30    1
4     1     31    1
5     2     28    1
6     2     3     2
7     3     4     1
8     3     5     1
9     4     32    1
10    4     33    1
11    4     34    1
12    5     6     1
13    5     35    1
14    5     36    1
15    6     7     1
16    6     8     1
17    6     23    1
18    8     9     2
19    8     10    am
20    10    22    1
21    10    11    1
22    11    12    1
23    11    37    1
24    11    38    1
25    12    13    1
26    12    39    1
27    12    40    1
28    13    14    1
29    13    15    1
30    13    21    1
31    15    20    1
32    15    16    1
33    15    41    1
34    16    17    1
35    16    42    1
36    16    43    1
37    17    18    1
38    17    44    1
39    17    45    1
40    18    19    1
41    18    46    1
42    18    47    1
43    19    20    1
44    19    48    1
45    19    49    1
46    20    50    1
47    20    51    1
48    21    22    1
49    21    52    1
50    21    53    1
51    22    54    1
52    22    55    1
53    23    24    1
54    23    25    1
55    23    28    1
56    25    26    ar
57    25    27    ar
58    28    56    1
59    28    57    1
@<TRIPOS>SUBSTRUCTURE
1   ZINC000006730797 1     RESIDUE    1   A     ZIN   1

@<TRIPOS>MOLECULE
ZINC000006730797
56    58    1     0     0
SMALL
USER_CHARGES
@<TRIPOS>ATOM
1      C1     -0.3231    1.3321    0.2147 C.3      1 ZINC000006730797   -0.1200
2      C2     -0.2451   -0.1727    0.1900 C.2      1 ZINC000006730797   -0.1100
3      C3      0.1441   -0.7424   -0.9052 C.2      1 ZINC000006730797   -0.1400
4      C4      0.4807    0.1399   -2.0797 C.3      1 ZINC000006730797   -0.1200
5      C5      0.2814   -2.2267   -1.0781 C.3      1 ZINC000006730797   -0.0600
6      C6     -0.4859   -2.9590    0.0250 C.3      1 ZINC000006730797   -0.0800
7      H7     -1.5577   -2.8382   -0.1321 H        1 ZINC000006730797    0.0900
8      C8     -0.1324   -4.4238    0.0011 C.2      1 ZINC000006730797    0.5400
9      O9      0.7410   -4.8487    0.7275 O.2      1 ZINC000006730797   -0.5200
10     N10    -0.7869   -5.2616   -0.8273 N.am     1 ZINC000006730797   -0.6200
11     C11    -1.9147   -4.7876   -1.6437 C.3      1 ZINC000006730797    0.1100
12     C12    -1.6692   -5.1998   -3.0991 C.3      1 ZINC000006730797    0.0400
13     N13    -1.4231   -6.6468   -3.1600 N.3      1 ZINC000006730797   -0.5300
14     C14    -1.3535   -7.1108   -4.5520 C.3      1 ZINC000006730797    0.0900
15     C15    -0.0727   -6.5836   -5.2019 C.3      1 ZINC000006730797   -0.1500
16     C16    -0.0002   -7.0669   -6.6518 C.3      1 ZINC000006730797   -0.1100
17     C17     0.0061   -8.5967   -6.6797 C.3      1 ZINC000006730797   -0.1200
18     C18    -1.2748   -9.1239   -6.0298 C.3      1 ZINC000006730797   -0.1200
19     C19    -1.3473   -8.6406   -4.5799 C.3      1 ZINC000006730797   -0.1100
20     C20    -0.2067   -7.0120   -2.4219 C.3      1 ZINC000006730797    0.0400
21     C21    -0.3884   -6.6726   -0.9433 C.3      1 ZINC000006730797    0.1200
22     C22    -0.0910   -2.3507    1.3766 C.3      1 ZINC000006730797   -0.1300
23     H23     0.9949   -2.3420    1.4712 H        1 ZINC000006730797    0.0700
24     C24    -0.6903   -3.1658    2.4935 C.2      1 ZINC000006730797    0.5100
25     O25    -0.0415   -3.3888    3.5014 O.co2    1 ZINC000006730797   -0.6900
26     O26    -1.8239   -3.6022    2.3892 O.co2    1 ZINC000006730797   -0.7000
27     C27    -0.6178   -0.9172    1.4386 C.3      1 ZINC000006730797   -0.0600
28     H28    -0.7409    1.6587    1.1670 H        1 ZINC000006730797    0.0600
29     H29     0.6765    1.7497    0.0943 H        1 ZINC000006730797    0.0600
30     H30    -0.9612    1.6763   -0.5992 H        1 ZINC000006730797    0.0600
31     H31     0.4228    1.1855   -1.7770 H        1 ZINC000006730797    0.0700
32     H32     1.4904   -0.0832   -2.4241 H        1 ZINC000006730797    0.0600
33     H33    -0.2278   -0.0443   -2.8873 H        1 ZINC000006730797    0.0600
34     H34    -0.1190   -2.5159   -2.0498 H        1 ZINC000006730797    0.0600
35     H35     1.3353   -2.5004   -1.0279 H        1 ZINC000006730797    0.0700
36     H36    -2.8404   -5.2388   -1.2866 H        1 ZINC000006730797    0.0700
37     H37    -1.9839   -3.7018   -1.5774 H        1 ZINC000006730797    0.0900
38     H38    -2.5452   -4.9543   -3.6994 H        1 ZINC000006730797    0.0800
39     H39    -0.8011   -4.6666   -3.4866 H        1 ZINC000006730797    0.0400
40     H40    -2.2189   -6.7409   -5.1020 H        1 ZINC000006730797    0.0800
41     H41    -0.0771   -5.4938   -5.1820 H        1 ZINC000006730797    0.0600
42     H42     0.7926   -6.9535   -4.6519 H        1 ZINC000006730797    0.0700
43     H43    -0.8655   -6.6970   -7.2017 H        1 ZINC000006730797    0.0600
44     H44     0.9123   -6.6913   -7.1148 H        1 ZINC000006730797    0.0600
45     H45     0.0577   -8.9410   -7.7126 H        1 ZINC000006730797    0.0600
46     H46     0.8714   -8.9666   -6.1297 H        1 ZINC000006730797    0.0600
47     H47    -2.1401   -8.7540   -6.5798 H        1 ZINC000006730797    0.0600
48     H48    -1.2703  -10.2137   -6.0497 H        1 ZINC000006730797    0.0600
49     H49    -0.4819   -9.0104   -4.0300 H        1 ZINC000006730797    0.0600
50     H50    -2.2598   -9.0161   -4.1169 H        1 ZINC000006730797    0.0700
51     H51    -0.0220   -8.0807   -2.5311 H        1 ZINC000006730797    0.0900
52     H52     0.6411   -6.4536   -2.8188 H        1 ZINC000006730797    0.0400
53     H53     0.5498   -6.8346   -0.4125 H        1 ZINC000006730797    0.0900
54     H54    -1.1678   -7.3034   -0.5159 H        1 ZINC000006730797    0.0700
55     H55    -0.1921   -0.4131    2.3062 H        1 ZINC000006730797    0.0700
56     H56    -1.7037   -0.9350    1.5304 H        1 ZINC000006730797    0.0700
@<TRIPOS>BOND
1     1     2     1
2     1     28    1
3     1     29    1
4     1     30    1
5     2     27    1
6     2     3     2
7     3     4     1
8     3     5     1
9     4     31    1
10    4     32    1
11    4     33    1
12    5     6     1
13    5     34    1
14    5     35    1
15    6     7     1
16    6     8     1
17    6     22    1
18    8     9     2
19    8     10    am
20    10    21    1
21    10    11    1
22    11    12    1
23    11    36    1
24    11    37    1
25    12    13    1
26    12    38    1
27    12    39    1
28    13    14    1
29    13    20    1
30    14    19    1
31    14    15    1
32    14    40    1
33    15    16    1
34    15    41    1
35    15    42    1
36    16    17    1
37    16    43    1
38    16    44    1
39    17    18    1
40    17    45    1
41    17    46    1
42    18    19    1
43    18    47    1
44    18    48    1
45    19    49    1
46    19    50    1
47    20    21    1
48    20    51    1
49    20    52    1
50    21    53    1
51    21    54    1
52    22    23    1
53    22    24    1
54    22    27    1
55    24    25    ar
56    24    26    ar
57    27    55    1
58    27    56    1
@<TRIPOS>SUBSTRUCTURE
1   ZINC000006730797 1     RESIDUE    1   A     ZIN   1
@<TRIPOS>MOLECULE
ZINC000032501400
  43   46    0    0    0
SMALL
USER_CHARGES
NO_NAME
@<TRIPOS>ATOM
    1 O1        0.0021    -0.0041     0.0020 O.2    1 <0>      -0.5000
    2 C2       -0.0145     1.2148     0.0087 C.2    1 <0>       0.4400
    3 C3       -1.2748     1.9819     0.0312 C.ar   1 <0>      -0.3400
    4 C4       -2.5028     1.3693    -0.2143 C.ar   1 <0>       0.0000
    5 C5       -3.6476     2.1149    -0.1925 C.ar   1 <0>      -0.2600
    6 C6       -3.5902     3.4814     0.0721 C.ar   1 <0>       0.3200
    7 O7       -4.7345     4.2115     0.0866 O.3    1 <0>      -0.6900
    8 C8       -2.3780     4.1024     0.3211 C.ar   1 <0>      -0.2600
    9 C9       -2.3318     5.5815     0.6063 C.3    1 <0>       0.1400
   10 N10      -2.4633     5.8056     2.0522 N.3    1 <0>      -0.5500
   11 C11      -2.1898     7.2090     2.3948 C.3    1 <0>       0.0500
   12 C12      -2.2776     7.3798     3.9147 C.3    1 <0>      -0.1500
   13 C13      -3.6529     6.9017     4.3911 C.3    1 <0>       0.0600
   14 O14      -3.8598     5.5576     3.9480 O.3    1 <0>      -0.3800
   15 C15      -3.7921     5.3990     2.5293 C.3    1 <0>       0.2400
   16 C16      -1.2045     3.3591     0.3073 C.ar   1 <0>       0.2000
   17 O17      -0.0207     3.9466     0.5635 O.3    1 <0>      -0.2100
   18 C18       1.1308     3.3434     0.2692 C.2    1 <0>       0.1300
   19 C19       1.2247     2.0160     0.0012 C.2    1 <0>      -0.2700
   20 C20       2.5347     1.3894    -0.3012 C.ar   1 <0>      -0.0100
   21 C21       2.7774     0.8516    -1.5639 C.ar   1 <0>      -0.0700
   22 C22       3.9977     0.2701    -1.8409 C.ar   1 <0>      -0.1500
   23 C23       4.9807     0.2200    -0.8660 C.ar   1 <0>       0.0900
   24 F24       6.1739    -0.3506    -1.1414 F      1 <0>      -0.1400
   25 C25       4.7440     0.7537     0.3904 C.ar   1 <0>      -0.1500
   26 C26       3.5286     1.3419     0.6747 C.ar   1 <0>      -0.0800
   27 H27      -2.5491     0.3103    -0.4211 H      1 <0>       0.1100
   28 H28      -4.6005     1.6432    -0.3816 H      1 <0>       0.1100
   29 H29      -1.3817     5.9887     0.2605 H      1 <0>       0.0700
   30 H30      -3.1509     6.0777     0.0857 H      1 <0>       0.0400
   31 H31      -1.1900     7.4790     2.0548 H      1 <0>       0.0700
   32 H32      -2.9261     7.8521     1.9126 H      1 <0>       0.0300
   33 H33      -1.4989     6.7864     4.3941 H      1 <0>       0.0800
   34 H34      -2.1476     8.4310     4.1718 H      1 <0>       0.0700
   35 H35      -3.6942     6.9371     5.4798 H      1 <0>       0.0900
   36 H36      -4.4272     7.5461     3.9747 H      1 <0>       0.0400
   37 H37      -4.5531     6.0206     2.0577 H      1 <0>       0.0300
   38 H38      -3.9662     4.3542     2.2720 H      1 <0>       0.1200
   39 H39       2.0320     3.9382     0.2467 H      1 <0>       0.1800
   40 H40       2.0114     0.8896    -2.3243 H      1 <0>       0.1300
   41 H41       4.1866    -0.1468    -2.8190 H      1 <0>       0.1300
   42 H42       5.5132     0.7125     1.1474 H      1 <0>       0.1300
   43 H43       3.3451     1.7580     1.6542 H      1 <0>       0.1300
@<TRIPOS>BOND
   1    1    2 2
   2    2   19 1
   3    2    3 1
   4    3   16 ar
   5    3    4 ar
   6    4    5 ar
   7    4   27 1
   8    5    6 ar
   9    5   28 1
  10    6    7 1
  11    6    8 ar
  12    8    9 1
  13    8   16 ar
  14    9   10 1
  15    9   29 1
  16    9   30 1
  17   10   15 1
  18   10   11 1
  19   11   12 1
  20   11   31 1
  21   11   32 1
  22   12   13 1
  23   12   33 1
  24   12   34 1
  25   13   14 1
  26   13   35 1
  27   13   36 1
  28   14   15 1
  29   15   37 1
  30   15   38 1
  31   16   17 1
  32   17   18 1
  33   18   19 2
  34   18   39 1
  35   19   20 1
  36   20   26 ar
  37   20   21 ar
  38   21   22 ar
  39   21   40 1
  40   22   23 ar
  41   22   41 1
  42   23   24 1
  43   23   25 ar
  44   25   26 ar
  45   25   42 1
  46   26   43 1
@<TRIPOS>MOLECULE
ZINC000035357643
  24   25    0    0    0
SMALL
USER_CHARGES
NO_NAME
@<TRIPOS>ATOM
    1 O1        0.0021    -0.0041     0.0020 O.2    1 <0>      -1.0100
    2 S2       -0.0172     1.4168     0.0098 S.o2   1 <0>       2.6100
    3 O3        1.1617     2.2101     0.0028 O.2    1 <0>      -1.0100
    4 N4       -0.9002     1.8797    -1.3124 N.pl3  1 <0>      -1.0800
    5 C5       -0.4169     1.6271    -2.5982 C.ar   1 <0>       0.3000
    6 C6        0.8014     0.9825    -2.7694 C.ar   1 <0>      -0.2500
    7 C7        1.2771     0.7333    -4.0431 C.ar   1 <0>       0.0400
    8 Cl8       2.7998    -0.0723    -4.2580 Cl     1 <0>      -0.0900
    9 C9        0.5404     1.1250    -5.1472 C.ar   1 <0>      -0.2100
   10 C10      -0.6738     1.7674    -4.9795 C.ar   1 <0>       0.0200
   11 Cl11     -1.5947     2.2571    -6.3673 Cl     1 <0>      -0.0900
   12 C12      -1.1565     2.0149    -3.7081 C.ar   1 <0>      -0.1700
   13 C13      -0.9297     1.8941     1.4396 C.ar   1 <0>      -0.7300
   14 C14      -0.7488     3.1433     2.0122 C.ar   1 <0>       0.2600
   15 N15      -1.4518     3.4677     3.0853 N.ar   1 <0>      -0.5200
   16 C16      -2.3153     2.6191     3.6092 C.ar   1 <0>       0.3900
   17 Cl17     -3.2147     3.0896     5.0175 Cl     1 <0>       0.0300
   18 N18      -2.5135     1.4223     3.0906 N.ar   1 <0>      -0.5200
   19 C19      -1.8494     1.0316     2.0148 C.ar   1 <0>       0.2600
   20 H20       1.3768     0.6766    -1.9081 H      1 <0>       0.1100
   21 H21       0.9139     0.9294    -6.1414 H      1 <0>       0.1300
   22 H22      -2.1042     2.5162    -3.5779 H      1 <0>       0.1300
   23 H23      -0.0432     3.8425     1.5883 H      1 <0>       0.1900
   24 H24      -2.0163     0.0505     1.5951 H      1 <0>       0.1900
@<TRIPOS>BOND
   1    1    2 2
   2    2    3 2
   3    2    4 1
   4    2   13 1
   5    4    5 1
   6    5   12 ar
   7    5    6 ar
   8    6    7 ar
   9    6   20 1
  10    7    8 1
  11    7    9 ar
  12    9   10 ar
  13    9   21 1
  14   10   11 1
  15   10   12 ar
  16   12   22 1
  17   13   19 ar
  18   13   14 ar
  19   14   15 ar
  20   14   23 1
  21   15   16 ar
  22   16   17 1
  23   16   18 ar
  24   18   19 ar
  25   19   24 1

@<TRIPOS>MOLECULE
ZINC000035357643
  25   26    0    0    0
SMALL
USER_CHARGES
NO_NAME
@<TRIPOS>ATOM
    1 O1       -0.4474     2.0523     1.0952 O.2    1 <0>      -0.9300
    2 S2        0.0910     1.4326    -0.0646 S.o2   1 <0>       2.7100
    3 O3        0.2851     0.0294    -0.1769 O.2    1 <0>      -0.9300
    4 N4       -0.8874     1.8718    -1.3264 N.am   1 <0>      -1.0500
    5 C5       -1.1995     3.2175    -1.5325 C.ar   1 <0>       0.1600
    6 C6       -1.5670     4.0188    -0.4592 C.ar   1 <0>      -0.1500
    7 C7       -1.8749     5.3504    -0.6660 C.ar   1 <0>       0.0000
    8 Cl8      -2.3344     6.3526     0.6749 Cl     1 <0>      -0.0400
    9 C9       -1.8167     5.8854    -1.9409 C.ar   1 <0>      -0.1100
   10 C10      -1.4508     5.0894    -3.0121 C.ar   1 <0>      -0.0100
   11 Cl11     -1.3791     5.7647    -4.6098 Cl     1 <0>      -0.0400
   12 C12      -1.1372     3.7583    -2.8104 C.ar   1 <0>      -0.1200
   13 C13       1.6643     2.1761    -0.3412 C.ar   1 <0>      -0.8100
   14 C14       2.6032     1.5665    -1.1583 C.ar   1 <0>       0.2800
   15 N15       3.7742     2.1543    -1.3435 N.ar   1 <0>      -0.5100
   16 C16       4.0520     3.3052    -0.7617 C.ar   1 <0>       0.4100
   17 Cl17      5.6018     4.0381    -1.0347 Cl     1 <0>       0.0500
   18 N18       3.1825     3.9140     0.0218 N.ar   1 <0>      -0.5100
   19 C19       1.9900     3.3873     0.2486 C.ar   1 <0>       0.2700
   20 H20      -1.2438     1.1945    -1.9224 H      1 <0>       0.4400
   21 H21      -1.6126     3.6017     0.5360 H      1 <0>       0.1800
   22 H22      -2.0577     6.9261    -2.1002 H      1 <0>       0.1500
   23 H23      -0.8517     3.1375    -3.6467 H      1 <0>       0.1500
   24 H24       2.3822     0.6241    -1.6372 H      1 <0>       0.2000
   25 H25       1.2827     3.8907     0.8911 H      1 <0>       0.2000
@<TRIPOS>BOND
   1    1    2 2
   2    2    3 2
   3    2    4 am
   4    2   13 1
   5    4    5 1
   6    4   20 1
   7    5   12 ar
   8    5    6 ar
   9    6    7 ar
  10    6   21 1
  11    7    8 1
  12    7    9 ar
  13    9   10 ar
  14    9   22 1
  15   10   11 1
  16   10   12 ar
  17   12   23 1
  18   13   19 ar
  19   13   14 ar
  20   14   15 ar
  21   14   24 1
  22   15   16 ar
  23   16   17 1
  24   16   18 ar
  25   18   19 ar
  26   19   25 1
@<TRIPOS>MOLECULE
ZINC000013142933
35    38    1     0     0
SMALL
USER_CHARGES
@<TRIPOS>ATOM
1      S1      0.0021   -0.0041    0.0020 S.2      1 ZINC000013142933   -0.3300
2      C2     -0.0211    1.7077    0.0114 C.2      1 ZINC000013142933    0.3600
3      N3     -1.1309    2.4559    0.0319 N.2      1 ZINC000013142933   -0.1300
4      N4     -0.9136    3.6704    0.0358 N.2      1 ZINC000013142933   -0.0600
5      C5      0.5446    3.8689    0.0158 C.3      1 ZINC000013142933    0.1300
6      C6      1.0047    4.6111    1.2722 C.3      1 ZINC000013142933    0.1400
7      N7      0.3755    5.9333    1.3161 N.pl3    1 ZINC000013142933   -0.5000
8      C8      0.9129    7.0975    0.8617 C.2      1 ZINC000013142933    0.2600
9      N9      0.0827    8.0799    1.0577 N.2      1 ZINC000013142933   -0.4800
10     C10    -1.0453    7.6128    1.6520 C.ar     1 ZINC000013142933    0.0500
11     C11    -2.2308    8.2167    2.0781 C.ar     1 ZINC000013142933   -0.0600
12     C12    -3.2097    7.4604    2.6585 C.ar     1 ZINC000013142933   -0.1200
13     C13    -3.0401    6.0943    2.8305 C.ar     1 ZINC000013142933   -0.0900
14     C14    -1.8784    5.4768    2.4176 C.ar     1 ZINC000013142933   -0.1000
15     C15    -0.8753    6.2279    1.8210 C.ar     1 ZINC000013142933    0.0600
16     N16     1.0784    2.4933    0.0052 N.am     1 ZINC000013142933   -0.5200
17     C17     2.4178    2.0934   -0.0141 C.ar     1 ZINC000013142933    0.1300
18     C18     3.0994    1.8859    1.1778 C.ar     1 ZINC000013142933   -0.0800
19     C19     4.4230    1.4908    1.1553 C.ar     1 ZINC000013142933   -0.1000
20     C20     5.0698    1.3023   -0.0520 C.ar     1 ZINC000013142933   -0.0800
21     C21     4.3949    1.5083   -1.2416 C.ar     1 ZINC000013142933   -0.1000
22     C22     3.0691    1.8971   -1.2268 C.ar     1 ZINC000013142933   -0.0100
23     Cl23    2.2222    2.1550   -2.7201 Cl       1 ZINC000013142933   -0.0500
24     H24     0.8461    4.4105   -0.8807 H        1 ZINC000013142933    0.1700
25     H25     0.7168    4.0421    2.1562 H        1 ZINC000013142933    0.1000
26     H26     2.0885    4.7250    1.2504 H        1 ZINC000013142933    0.1300
27     H27     1.8869    7.1925    0.4050 H        1 ZINC000013142933    0.2200
28     H28    -2.3731    9.2795    1.9494 H        1 ZINC000013142933    0.1300
29     H29    -4.1246    7.9310    2.9870 H        1 ZINC000013142933    0.1300
30     H30    -3.8232    5.5104    3.2914 H        1 ZINC000013142933    0.1300
31     H31    -1.7513    4.4130    2.5541 H        1 ZINC000013142933    0.1100
32     H32     2.5954    2.0335    2.1214 H        1 ZINC000013142933    0.1400
33     H33     4.9533    1.3293    2.0821 H        1 ZINC000013142933    0.1500
34     H34     6.1047    0.9937   -0.0663 H        1 ZINC000013142933    0.1500
35     H35     4.9033    1.3604   -2.1829 H        1 ZINC000013142933    0.1500
@<TRIPOS>BOND
1     1     2     2
2     2     16    am
3     2     3     1
4     3     4     2
5     4     5     1
6     5     6     1
7     5     16    1
8     5     24    1
9     6     7     1
10    6     25    1
11    6     26    1
12    7     15    1
13    7     8     1
14    8     9     2
15    8     27    1
16    9     10    1
17    10    15    ar
18    10    11    ar
19    11    12    ar
20    11    28    1
21    12    13    ar
22    12    29    1
23    13    14    ar
24    13    30    1
25    14    15    ar
26    14    31    1
27    16    17    1
28    17    22    ar
29    17    18    ar
30    18    19    ar
31    18    32    1
32    19    20    ar
33    19    33    1
34    20    21    ar
35    20    34    1
36    21    22    ar
37    21    35    1
38    22    23    1
@<TRIPOS>SUBSTRUCTURE
1   ZINC000013142933 1     RESIDUE    1   A     ZIN   1

@<TRIPOS>MOLECULE
ZINC000013142933
34    37    1     0     0
SMALL
USER_CHARGES
@<TRIPOS>ATOM
1      S1      0.0021   -0.0041    0.0020 S.2      1 ZINC000013142933   -0.7600
2      C2     -0.0211    1.7077    0.0114 C.2      1 ZINC000013142933    0.4100
3      N3     -1.1193    2.4916    0.0320 N.pl3    1 ZINC000013142933   -0.3800
4      N4     -0.6818    3.8232    0.0325 N.2      1 ZINC000013142933   -0.2900
5      C5      0.6123    3.8223    0.0131 C.2      1 ZINC000013142933    0.1400
6      C6      1.4904    5.0471    0.0069 C.3      1 ZINC000013142933    0.2100
7      N7      0.6525    6.2487    0.0256 N.pl3    1 ZINC000013142933   -0.4700
8      C8      0.2489    6.9672   -1.0568 C.2      1 ZINC000013142933    0.2800
9      N9     -0.4849    7.9725   -0.6779 N.2      1 ZINC000013142933   -0.5000
10     C10    -0.6025    7.9679    0.6748 C.ar     1 ZINC000013142933    0.0500
11     C11    -1.2598    8.7962    1.5877 C.ar     1 ZINC000013142933   -0.0700
12     C12    -1.1900    8.5257    2.9253 C.ar     1 ZINC000013142933   -0.1300
13     C13    -0.4712    7.4338    3.3899 C.ar     1 ZINC000013142933   -0.1100
14     C14     0.1855    6.6026    2.5072 C.ar     1 ZINC000013142933   -0.1000
15     C15     0.1213    6.8585    1.1445 C.ar     1 ZINC000013142933    0.0700
16     N16     1.0545    2.5205    0.0055 N.am     1 ZINC000013142933   -0.4600
17     C17     2.3942    2.1088   -0.0148 C.ar     1 ZINC000013142933    0.1600
18     C18     3.0752    1.8981    1.1760 C.ar     1 ZINC000013142933   -0.0900
19     C19     4.3955    1.4919    1.1529 C.ar     1 ZINC000013142933   -0.1100
20     C20     5.0392    1.2955   -0.0548 C.ar     1 ZINC000013142933   -0.1000
21     C21     4.3643    1.5048   -1.2437 C.ar     1 ZINC000013142933   -0.1100
22     C22     3.0418    1.9052   -1.2275 C.ar     1 ZINC000013142933   -0.0200
23     Cl23    2.1949    2.1679   -2.7200 Cl       1 ZINC000013142933   -0.0500
24     H24     2.1326    5.0382    0.8875 H        1 ZINC000013142933    0.1000
25     H25     2.1066    5.0478   -0.8922 H        1 ZINC000013142933    0.1100
26     H26     0.5012    6.7368   -2.0813 H        1 ZINC000013142933    0.2100
27     H27    -1.8219    9.6491    1.2370 H        1 ZINC000013142933    0.1300
28     H28    -1.6992    9.1686    3.6279 H        1 ZINC000013142933    0.1300
29     H29    -0.4254    7.2337    4.4502 H        1 ZINC000013142933    0.1300
30     H30     0.7439    5.7541    2.8741 H        1 ZINC000013142933    0.1200
31     H31     2.5735    2.0519    2.1200 H        1 ZINC000013142933    0.1300
32     H32     4.9255    1.3278    2.0794 H        1 ZINC000013142933    0.1300
33     H33     6.0715    0.9782   -0.0698 H        1 ZINC000013142933    0.1300
34     H34     4.8700    1.3509   -2.1855 H        1 ZINC000013142933    0.1400
@<TRIPOS>BOND
1     1     2     2
2     2     16    am
3     2     3     1
4     3     4     1
5     4     5     2
6     5     6     1
7     5     16    1
8     6     7     1
9     6     24    1
10    6     25    1
11    7     15    1
12    7     8     1
13    8     9     2
14    8     26    1
15    9     10    1
16    10    15    ar
17    10    11    ar
18    11    12    ar
19    11    27    1
20    12    13    ar
21    12    28    1
22    13    14    ar
23    13    29    1
24    14    15    ar
25    14    30    1
26    16    17    1
27    17    22    ar
28    17    18    ar
29    18    19    ar
30    18    31    1
31    19    20    ar
32    19    32    1
33    20    21    ar
34    20    33    1
35    21    22    ar
36    21    34    1
37    22    23    1
@<TRIPOS>SUBSTRUCTURE
1   ZINC000013142933 1     RESIDUE    1   A     ZIN   1
@<TRIPOS>MOLECULE
ZINC000038008759
  21   22    0    0    0
SMALL
USER_CHARGES
NO_NAME
@<TRIPOS>ATOM
    1 O1        0.0021    -0.0041     0.0020 O.2    1 <0>      -1.0000
    2 S2       -0.0172     1.4168     0.0098 S.o2   1 <0>       2.6400
    3 O3        1.1617     2.2101     0.0028 O.2    1 <0>      -1.0000
    4 N4       -0.9002     1.8797    -1.3124 N.pl3  1 <0>      -1.0400
    5 C5       -0.4204     1.6289    -2.5889 C.2    1 <0>       0.4000
    6 N6        0.7006     1.0356    -2.8575 N.2    1 <0>      -0.6200
    7 C7        1.0026     0.8790    -4.1348 C.2    1 <0>       0.1500
    8 C8        0.0935     1.3631    -4.9826 C.2    1 <0>      -0.3400
    9 Br9       0.1976     1.3124    -6.8701 Br     1 <0>      -0.0200
   10 S10      -1.2246     2.0506    -4.0375 S.3    1 <0>       0.1000
   11 C11      -0.9297     1.8941     1.4396 C.ar   1 <0>      -0.5700
   12 C12      -0.7486     3.1439     2.0124 C.ar   1 <0>      -0.0700
   13 C13      -1.4815     3.4841     3.1334 C.ar   1 <0>       0.1000
   14 N14      -2.3447     2.6364     3.6583 N.ar   1 <0>      -0.4500
   15 C15      -2.5433     1.4389     3.1403 C.ar   1 <0>       0.1500
   16 Cl16     -3.6936     0.3659     3.8748 Cl     1 <0>      -0.0300
   17 C17      -1.8495     1.0314     2.0148 C.ar   1 <0>      -0.0600
   18 H18       1.9116     0.3985    -4.4652 H      1 <0>       0.1600
   19 H19      -0.0430     3.8428     1.5879 H      1 <0>       0.1600
   20 H20      -1.3456     4.4556     3.5853 H      1 <0>       0.1700
   21 H21      -2.0162     0.0505     1.5949 H      1 <0>       0.1600
@<TRIPOS>BOND
   1    1    2 2
   2    2    3 2
   3    2    4 1
   4    2   11 1
   5    4    5 1
   6    5   10 1
   7    5    6 2
   8    6    7 1
   9    7    8 2
  10    7   18 1
  11    8    9 1
  12    8   10 1
  13   11   17 ar
  14   11   12 ar
  15   12   13 ar
  16   12   19 1
  17   13   14 ar
  18   13   20 1
  19   14   15 ar
  20   15   16 1
  21   15   17 ar
  22   17   21 1

@<TRIPOS>MOLECULE
ZINC000038008759
  22   23    0    0    0
SMALL
USER_CHARGES
NO_NAME
@<TRIPOS>ATOM
    1 O1        0.0021    -0.0041     0.0020 O.2    1 <0>      -0.9300
    2 S2       -0.0172     1.4168     0.0098 S.o2   1 <0>       2.6900
    3 O3        1.1617     2.2101     0.0028 O.2    1 <0>      -0.9000
    4 N4       -0.9002     1.8797    -1.3124 N.am   1 <0>      -1.0000
    5 C5       -1.1240     3.2255    -1.5600 C.2    1 <0>       0.2900
    6 N6       -0.6837     4.1989    -0.8254 N.2    1 <0>      -0.5100
    7 C7       -0.9927     5.4250    -1.2106 C.2    1 <0>       0.1300
    8 C8       -1.7278     5.4882    -2.3219 C.2    1 <0>      -0.2700
    9 Br9      -2.3472     7.0687    -3.1550 Br     1 <0>       0.0400
   10 S10      -2.0143     3.8429    -2.8825 S.3    1 <0>       0.2300
   11 C11      -0.9297     1.8941     1.4396 C.ar   1 <0>      -0.6200
   12 C12      -0.7486     3.1439     2.0124 C.ar   1 <0>      -0.0500
   13 C13      -1.4815     3.4841     3.1334 C.ar   1 <0>       0.1100
   14 N14      -2.3447     2.6364     3.6583 N.ar   1 <0>      -0.4300
   15 C15      -2.5433     1.4389     3.1403 C.ar   1 <0>       0.1500
   16 Cl16     -3.6936     0.3659     3.8748 Cl     1 <0>      -0.0100
   17 C17      -1.8495     1.0314     2.0148 C.ar   1 <0>      -0.0600
   18 H18      -1.2609     1.2094    -1.9136 H      1 <0>       0.4400
   19 H19      -0.6759     6.3043    -0.6692 H      1 <0>       0.2000
   20 H20      -0.0430     3.8428     1.5879 H      1 <0>       0.1700
   21 H21      -1.3456     4.4556     3.5853 H      1 <0>       0.1800
   22 H22      -2.0162     0.0505     1.5949 H      1 <0>       0.1600
@<TRIPOS>BOND
   1    1    2 2
   2    2    3 2
   3    2    4 am
   4    2   11 1
   5    4    5 1
   6    4   18 1
   7    5   10 1
   8    5    6 2
   9    6    7 1
  10    7    8 2
  11    7   19 1
  12    8    9 1
  13    8   10 1
  14   11   17 ar
  15   11   12 ar
  16   12   13 ar
  17   12   20 1
  18   13   14 ar
  19   13   21 1
  20   14   15 ar
  21   15   16 1
  22   15   17 ar
  23   17   22 1
@<TRIPOS>MOLECULE
ZINC000048653964
26    27    1     0     0
SMALL
USER_CHARGES
@<TRIPOS>ATOM
1      C1     -0.0178    1.4608    0.0101 C.3      1 ZINC000048653964    0.1200
2      N2      0.0021   -0.0041    0.0020 N.pl3    1 ZINC000048653964   -0.4000
3      C3      0.0079   -0.7985   -1.1014 C.2      1 ZINC000048653964   -0.0600
4      C4      0.0282   -2.0875   -0.6775 C.2      1 ZINC000048653964    0.1400
5      N5      0.0410   -3.2305   -1.4997 N.pl3    1 ZINC000048653964   -1.0700
6      S6      0.0655   -4.7399   -0.8190 S.o2     1 ZINC000048653964    2.5800
7      O7      1.3199   -4.8640   -0.1631 O.2      1 ZINC000048653964   -1.0100
8      O8     -1.1793   -4.8997   -0.1524 O.2      1 ZINC000048653964   -1.0100
9      C9      0.0765   -5.9071   -2.1389 C.ar     1 ZINC000048653964   -0.6000
10     C10    -1.1171   -6.3782   -2.6557 C.ar     1 ZINC000048653964    0.0700
11     Cl11   -2.6259   -5.8193   -2.0038 Cl       1 ZINC000048653964    0.0000
12     C12    -1.1084   -7.2943   -3.6922 C.ar     1 ZINC000048653964   -0.1300
13     C13     0.0939   -7.7396   -4.2117 C.ar     1 ZINC000048653964    0.0200
14     Cl14    0.1048   -8.8896   -5.5121 Cl       1 ZINC000048653964   -0.0500
15     C15     1.2875   -7.2682   -3.6952 C.ar     1 ZINC000048653964   -0.1300
16     C16     1.2788   -6.3482   -2.6621 C.ar     1 ZINC000048653964    0.0700
17     Cl17    2.7767   -5.7567   -2.0140 Cl       1 ZINC000048653964    0.0000
18     C18     0.0349   -2.0792    0.7247 C.2      1 ZINC000048653964   -0.0500
19     N19     0.0246   -0.8348    1.1296 N.2      1 ZINC000048653964   -0.3000
20     H20     1.0048    1.8381    0.0023 H        1 ZINC000048653964    0.0600
21     H21    -0.5450    1.8219   -0.8730 H        1 ZINC000048653964    0.0700
22     H22    -0.5280    1.8123    0.9069 H        1 ZINC000048653964    0.0700
23     H23    -0.0018   -0.4645   -2.1284 H        1 ZINC000048653964    0.1600
24     H24    -2.0403   -7.6620   -4.0957 H        1 ZINC000048653964    0.1500
25     H25     2.2261   -7.6156   -4.1010 H        1 ZINC000048653964    0.1500
26     H26     0.0499   -2.9510    1.3619 H        1 ZINC000048653964    0.1600
@<TRIPOS>BOND
1     1     2     1
2     1     20    1
3     1     21    1
4     1     22    1
5     2     19    1
6     2     3     1
7     3     4     2
8     3     23    1
9     4     5     1
10    4     18    1
11    5     6     1
12    6     7     2
13    6     8     2
14    6     9     1
15    9     16    ar
16    9     10    ar
17    10    11    1
18    10    12    ar
19    12    13    ar
20    12    24    1
21    13    14    1
22    13    15    ar
23    15    16    ar
24    15    25    1
25    16    17    1
26    18    19    2
27    18    26    1
@<TRIPOS>SUBSTRUCTURE
1   ZINC000048653964 1     RESIDUE    1   A     ZIN   1

@<TRIPOS>MOLECULE
ZINC000048653964
27    28    1     0     0
SMALL
USER_CHARGES
@<TRIPOS>ATOM
1      C1     -0.0178    1.4608    0.0101 C.3      1 ZINC000048653964    0.1000
2      N2      0.0021   -0.0041    0.0020 N.pl3    1 ZINC000048653964   -0.3700
3      C3      0.0079   -0.7985   -1.1014 C.2      1 ZINC000048653964    0.0600
4      C4      0.0282   -2.0875   -0.6775 C.2      1 ZINC000048653964   -0.0100
5      N5      0.0410   -3.2305   -1.4997 N.am     1 ZINC000048653964   -1.0200
6      S6      1.0745   -4.4801   -1.1643 S.o2     1 ZINC000048653964    2.6900
7      O7      0.8240   -5.4812   -2.1412 O.2      1 ZINC000048653964   -0.9300
8      O8      2.3544   -3.8981   -0.9584 O.2      1 ZINC000048653964   -0.9200
9      C9      0.5831   -5.1621    0.3843 C.ar     1 ZINC000048653964   -0.6800
10     C10     1.1195   -4.6672    1.5595 C.ar     1 ZINC000048653964    0.0600
11     Cl11    2.2768   -3.3743    1.5085 Cl       1 ZINC000048653964    0.0200
12     C12     0.7334   -5.2023    2.7753 C.ar     1 ZINC000048653964   -0.1200
13     C13    -0.1889   -6.2327    2.8159 C.ar     1 ZINC000048653964    0.0400
14     Cl14   -0.6730   -6.9046    4.3417 Cl       1 ZINC000048653964   -0.0200
15     C15    -0.7256   -6.7273    1.6408 C.ar     1 ZINC000048653964   -0.1200
16     C16    -0.3434   -6.1886    0.4252 C.ar     1 ZINC000048653964    0.0800
17     Cl17   -1.0169   -6.8093   -1.0495 Cl       1 ZINC000048653964    0.0100
18     C18     0.0349   -2.0792    0.7247 C.2      1 ZINC000048653964    0.0200
19     N19     0.0246   -0.8348    1.1296 N.2      1 ZINC000048653964   -0.2600
20     H20     1.0048    1.8381    0.0023 H        1 ZINC000048653964    0.0800
21     H21    -0.5450    1.8219   -0.8730 H        1 ZINC000048653964    0.0900
22     H22    -0.5280    1.8123    0.9069 H        1 ZINC000048653964    0.0900
23     H23    -0.0018   -0.4645   -2.1284 H        1 ZINC000048653964    0.1800
24     H24    -0.5555   -3.2858   -2.2626 H        1 ZINC000048653964    0.4300
25     H25     1.1521   -4.8160    3.6928 H        1 ZINC000048653964    0.1600
26     H26    -1.4459   -7.5314    1.6725 H        1 ZINC000048653964    0.1600
27     H27     0.0499   -2.9510    1.3619 H        1 ZINC000048653964    0.1800
@<TRIPOS>BOND
1     1     2     1
2     1     20    1
3     1     21    1
4     1     22    1
5     2     19    1
6     2     3     1
7     3     4     2
8     3     23    1
9     4     5     1
10    4     18    1
11    5     6     am
12    5     24    1
13    6     7     2
14    6     8     2
15    6     9     1
16    9     16    ar
17    9     10    ar
18    10    11    1
19    10    12    ar
20    12    13    ar
21    12    25    1
22    13    14    1
23    13    15    ar
24    15    16    ar
25    15    26    1
26    16    17    1
27    18    19    2
28    18    27    1
@<TRIPOS>SUBSTRUCTURE
1   ZINC000048653964 1     RESIDUE    1   A     ZIN   1
@<TRIPOS>MOLECULE
ZINC000049547513
  32   34    0    0    0
SMALL
USER_CHARGES
NO_NAME
@<TRIPOS>ATOM
    1 C1       -0.0184     1.5028     0.0103 C.3    1 <0>      -0.0700
    2 C2        0.0021    -0.0041     0.0020 C.2    1 <0>       0.0200
    3 N3        0.0084    -0.7771    -1.0474 N.2    1 <0>      -0.3700
    4 O4        0.0262    -1.9478    -0.7462 O.3    1 <0>       0.1100
    5 C5        0.0343    -2.1116     0.5889 C.2    1 <0>       0.0500
    6 C6        0.0556    -3.3910     1.3259 C.2    1 <0>      -0.0700
    7 C7        0.0572    -3.4604     2.6713 C.2    1 <0>      -0.2100
    8 S8        0.0835    -5.0871     3.1857 S.3    1 <0>       0.3100
    9 C9        0.0922    -5.6671     1.5270 C.2    1 <0>      -0.7300
   10 S10       0.1193    -7.3621     1.0467 S.o2   1 <0>       2.6200
   11 O11      -0.4125    -8.0976     2.1401 O.2    1 <0>      -1.0200
   12 O12      -0.4253    -7.4164    -0.2647 O.2    1 <0>      -1.0200
   13 N13       1.7084    -7.8081     0.9119 N.pl3  1 <0>      -1.0800
   14 C14       2.0386    -9.1149     0.5400 C.ar   1 <0>       0.2700
   15 C15       1.0348   -10.0381     0.2779 C.ar   1 <0>      -0.2400
   16 C16       1.3633   -11.3284    -0.0893 C.ar   1 <0>      -0.0900
   17 C17       2.6924   -11.7019    -0.1958 C.ar   1 <0>      -0.0200
   18 F18       3.0115   -12.9647    -0.5546 F      1 <0>      -0.1600
   19 C19       3.6949   -10.7830     0.0647 C.ar   1 <0>      -0.1100
   20 C20       3.3710    -9.4900     0.4266 C.ar   1 <0>      -0.1600
   21 C21       0.0699    -4.6344     0.6878 C.2    1 <0>       0.0000
   22 C22       0.0243    -0.8517     1.1269 C.2    1 <0>      -0.2300
   23 H23       1.0042     1.8801     0.0026 H      1 <0>       0.0800
   24 H24      -0.5455     1.8639    -0.8728 H      1 <0>       0.0800
   25 H25      -0.5286     1.8543     0.9071 H      1 <0>       0.0800
   26 H26       0.0437    -2.6061     3.3319 H      1 <0>       0.1700
   27 H27      -0.0020    -9.7474     0.3614 H      1 <0>       0.1100
   28 H28       0.5830   -12.0466    -0.2933 H      1 <0>       0.1200
   29 H29       4.7309   -11.0764    -0.0193 H      1 <0>       0.1200
   30 H30       4.1532    -8.7735     0.6293 H      1 <0>       0.1200
   31 H31       0.0699    -4.7466    -0.3864 H      1 <0>       0.1600
   32 H32       0.0265    -0.5733     2.1704 H      1 <0>       0.1700
@<TRIPOS>BOND
   1    1    2 1
   2    1   23 1
   3    1   24 1
   4    1   25 1
   5    2   22 1
   6    2    3 2
   7    3    4 1
   8    4    5 1
   9    5    6 1
  10    5   22 2
  11    6   21 1
  12    6    7 2
  13    7    8 1
  14    7   26 1
  15    8    9 1
  16    9   10 1
  17    9   21 2
  18   10   11 2
  19   10   12 2
  20   10   13 1
  21   13   14 1
  22   14   20 ar
  23   14   15 ar
  24   15   16 ar
  25   15   27 1
  26   16   17 ar
  27   16   28 1
  28   17   18 1
  29   17   19 ar
  30   19   20 ar
  31   19   29 1
  32   20   30 1
  33   21   31 1
  34   22   32 1

@<TRIPOS>MOLECULE
ZINC000049547513
  33   35    0    0    0
SMALL
USER_CHARGES
NO_NAME
@<TRIPOS>ATOM
    1 C1        4.4233     0.8943     3.4551 C.3    1 <0>      -0.0800
    2 C2        3.7333    -0.3614     2.9880 C.2    1 <0>       0.0200
    3 N3        3.1949    -0.5652     1.8186 N.2    1 <0>      -0.3600
    4 O4        2.7137    -1.6707     1.7292 O.3    1 <0>       0.1100
    5 C5        2.8751    -2.3703     2.8667 C.2    1 <0>       0.0300
    6 C6        2.4214    -3.7503     3.1316 C.2    1 <0>      -0.0600
    7 C7        2.6231    -4.3736     4.3088 C.2    1 <0>      -0.1900
    8 S8        1.9724    -5.9504     4.2694 S.3    1 <0>       0.3300
    9 C9        1.4211    -5.7389     2.6144 C.2    1 <0>      -0.8200
   10 S10       0.5670    -6.9552     1.6679 S.o2   1 <0>       2.7200
   11 O11       0.0387    -7.8899     2.5989 O.2    1 <0>      -0.9400
   12 O12      -0.2385    -6.2461     0.7365 O.2    1 <0>      -0.9300
   13 N13       1.7017    -7.7707     0.7792 N.am   1 <0>      -1.0600
   14 C14       2.4425    -7.0964    -0.1962 C.ar   1 <0>       0.1100
   15 C15       1.8519    -6.7558    -1.4061 C.ar   1 <0>      -0.0700
   16 C16       2.5856    -6.0898    -2.3683 C.ar   1 <0>      -0.1400
   17 C17       3.9092    -5.7621    -2.1275 C.ar   1 <0>       0.1100
   18 F18       4.6251    -5.1111    -3.0703 F      1 <0>      -0.1300
   19 C19       4.4999    -6.1003    -0.9218 C.ar   1 <0>      -0.1500
   20 C20       3.7684    -6.7613     0.0455 C.ar   1 <0>      -0.0800
   21 C21       1.7405    -4.5205     2.1846 C.2    1 <0>       0.0300
   22 C22       3.5500    -1.5460     3.7279 C.2    1 <0>      -0.2200
   23 H23       5.4846     0.8371     3.2133 H      1 <0>       0.0800
   24 H24       3.9831     1.7577     2.9564 H      1 <0>       0.0800
   25 H25       4.3013     0.9962     4.5334 H      1 <0>       0.0800
   26 H26       3.1261    -3.9363     5.1586 H      1 <0>       0.1800
   27 H27       1.8524    -8.7161     0.9354 H      1 <0>       0.4300
   28 H28       0.8197    -7.0118    -1.5947 H      1 <0>       0.1500
   29 H29       2.1267    -5.8247    -3.3094 H      1 <0>       0.1500
   30 H30       5.5324    -5.8435    -0.7359 H      1 <0>       0.1400
   31 H31       4.2294    -7.0246     0.9860 H      1 <0>       0.1400
   32 H32       1.5020    -4.1627     1.1939 H      1 <0>       0.1600
   33 H33       3.8630    -1.7537     4.7404 H      1 <0>       0.1700
@<TRIPOS>BOND
   1    1    2 1
   2    1   23 1
   3    1   24 1
   4    1   25 1
   5    2   22 1
   6    2    3 2
   7    3    4 1
   8    4    5 1
   9    5    6 1
  10    5   22 2
  11    6   21 1
  12    6    7 2
  13    7    8 1
  14    7   26 1
  15    8    9 1
  16    9   10 1
  17    9   21 2
  18   10   11 2
  19   10   12 2
  20   10   13 am
  21   13   14 1
  22   13   27 1
  23   14   20 ar
  24   14   15 ar
  25   15   16 ar
  26   15   28 1
  27   16   17 ar
  28   16   29 1
  29   17   18 1
  30   17   19 ar
  31   19   20 ar
  32   19   30 1
  33   20   31 1
  34   21   32 1
  35   22   33 1
@<TRIPOS>MOLECULE
ZINC000057089555
43    46    1     0     0
SMALL
USER_CHARGES
@<TRIPOS>ATOM
1      O1     -2.0741    5.6274   -0.3829 O.3      1 ZINC000057089555   -0.7300
2      C2     -1.1597    4.6203   -0.3367 C.2      1 ZINC000057089555    0.3200
3      C3     -1.4176    3.2876   -0.3454 C.2      1 ZINC000057089555   -0.2200
4      C4     -2.7698    2.6254   -0.4080 C.3      1 ZINC000057089555    0.1600
5      N5     -3.0526    2.2193   -1.7912 N.3      1 ZINC000057089555   -0.5100
6      C6     -2.9882    3.3779   -2.7073 C.3      1 ZINC000057089555    0.0500
7      C7     -4.0569    3.0860   -3.7900 C.3      1 ZINC000057089555   -0.1300
8      C8     -5.1781    2.4177   -2.9515 C.3      1 ZINC000057089555   -0.1300
9      C9     -4.3904    1.6088   -1.8996 C.3      1 ZINC000057089555    0.1100
10     H10    -4.2996    0.5713   -2.2213 H        1 ZINC000057089555    0.0900
11     C11    -5.0962    1.6729   -0.5696 C.ar     1 ZINC000057089555   -0.0600
12     C12    -5.5306    2.8887   -0.0760 C.ar     1 ZINC000057089555   -0.1100
13     C13    -6.1783    2.9491    1.1441 C.ar     1 ZINC000057089555   -0.0900
14     C14    -6.3920    1.7938    1.8714 C.ar     1 ZINC000057089555   -0.1600
15     C15    -5.9576    0.5751    1.3776 C.ar     1 ZINC000057089555    0.0900
16     F16    -6.1660   -0.5551    2.0878 F        1 ZINC000057089555   -0.1400
17     C17    -5.3139    0.5152    0.1535 C.ar     1 ZINC000057089555   -0.1400
18     N18    -0.2023    2.6701   -0.2868 N.pl3    1 ZINC000057089555   -0.2500
19     C19     0.0176    1.2852   -0.2736 C.ar     1 ZINC000057089555    0.1800
20     C20    -0.7230    0.4714    0.5729 C.ar     1 ZINC000057089555   -0.1100
21     C21    -0.5046   -0.8924    0.5833 C.ar     1 ZINC000057089555   -0.1100
22     C22     0.4510   -1.4472   -0.2480 C.ar     1 ZINC000057089555   -0.1300
23     C23     1.1905   -0.6392   -1.0919 C.ar     1 ZINC000057089555   -0.1100
24     C24     0.9723    0.7246   -1.1112 C.ar     1 ZINC000057089555   -0.1100
25     N25     0.7073    3.5799   -0.2464 N.2      1 ZINC000057089555   -0.1000
26     N26     0.1725    4.7488   -0.2795 N.2      1 ZINC000057089555   -0.3600
27     H27    -2.7742    1.7466    0.2368 H        1 ZINC000057089555    0.0600
28     H28    -3.5337    3.3266   -0.0719 H        1 ZINC000057089555    0.0600
29     H29    -3.2297    4.2973   -2.1739 H        1 ZINC000057089555    0.0700
30     H30    -1.9992    3.4493   -3.1598 H        1 ZINC000057089555    0.0700
31     H31    -4.4102    4.0094   -4.2489 H        1 ZINC000057089555    0.0700
32     H32    -3.6715    2.3997   -4.5440 H        1 ZINC000057089555    0.0700
33     H33    -5.8011    3.1717   -2.4705 H        1 ZINC000057089555    0.0700
34     H34    -5.7821    1.7565   -3.5730 H        1 ZINC000057089555    0.0700
35     H35    -5.3637    3.7922   -0.6436 H        1 ZINC000057089555    0.1300
36     H36    -6.5170    3.8996    1.5290 H        1 ZINC000057089555    0.1300
37     H37    -6.8973    1.8413    2.8247 H        1 ZINC000057089555    0.1300
38     H38    -4.9750   -0.4347   -0.2328 H        1 ZINC000057089555    0.1300
39     H39    -1.4690    0.9043    1.2229 H        1 ZINC000057089555    0.1300
40     H40    -1.0804   -1.5259    1.2416 H        1 ZINC000057089555    0.1200
41     H41     0.6203   -2.5138   -0.2379 H        1 ZINC000057089555    0.1200
42     H42     1.9365   -1.0753   -1.7398 H        1 ZINC000057089555    0.1300
43     H43     1.5502    1.3552   -1.7705 H        1 ZINC000057089555    0.1300
@<TRIPOS>BOND
1     1     2     1
2     2     26    1
3     2     3     2
4     3     4     1
5     3     18    1
6     4     5     1
7     4     27    1
8     4     28    1
9     5     9     1
10    5     6     1
11    6     7     1
12    6     29    1
13    6     30    1
14    7     8     1
15    7     31    1
16    7     32    1
17    8     9     1
18    8     33    1
19    8     34    1
20    9     10    1
21    9     11    1
22    11    17    ar
23    11    12    ar
24    12    13    ar
25    12    35    1
26    13    14    ar
27    13    36    1
28    14    15    ar
29    14    37    1
30    15    16    1
31    15    17    ar
32    17    38    1
33    18    19    1
34    18    25    1
35    19    24    ar
36    19    20    ar
37    20    21    ar
38    20    39    1
39    21    22    ar
40    21    40    1
41    22    23    ar
42    22    41    1
43    23    24    ar
44    23    42    1
45    24    43    1
46    25    26    2
@<TRIPOS>SUBSTRUCTURE
1   ZINC000057089555 1     RESIDUE    1   A     ZIN   1
@<TRIPOS>MOLECULE
ZINC000058403898
40    43    1     0     0
SMALL
USER_CHARGES
@<TRIPOS>ATOM
1      O1     -4.9331    1.2030    1.8517 O.3      1 ZINC000058403898   -0.7200
2      C2     -3.9727    0.2703    1.6059 C.2      1 ZINC000058403898    0.3300
3      C3     -2.7672    0.4807    1.0184 C.2      1 ZINC000058403898   -0.2300
4      C4     -2.2226    1.7898    0.5080 C.3      1 ZINC000058403898    0.1500
5      N5     -2.5199    1.9185   -0.9249 N.3      1 ZINC000058403898   -0.4800
6      C6     -3.8821    1.4699   -1.2205 C.3      1 ZINC000058403898    0.0600
7      C7     -4.1445    1.6536   -2.7204 C.3      1 ZINC000058403898   -0.1200
8      C8     -4.1886    3.1554   -3.0111 C.3      1 ZINC000058403898   -0.0800
9      C9     -3.0100    3.8338   -2.3593 C.ar     1 ZINC000058403898   -0.0800
10     C10    -2.6849    5.1171   -2.7720 C.ar     1 ZINC000058403898   -0.1300
11     C11    -1.6181    5.7880   -2.2038 C.ar     1 ZINC000058403898    0.0800
12     F12    -1.3093    7.0381   -2.6125 F        1 ZINC000058403898   -0.1400
13     C13    -0.8671    5.1759   -1.2145 C.ar     1 ZINC000058403898   -0.1600
14     C14    -1.1842    3.8977   -0.8017 C.ar     1 ZINC000058403898    0.0800
15     F15    -0.4501    3.3027    0.1639 F        1 ZINC000058403898   -0.1200
16     C16    -2.2599    3.2153   -1.3758 C.ar     1 ZINC000058403898    0.1100
17     N17    -2.1489   -0.7352    0.9853 N.pl3    1 ZINC000058403898   -0.2500
18     C18    -0.8740   -0.9964    0.4629 C.ar     1 ZINC000058403898    0.1600
19     C19    -0.4837   -0.4215   -0.7389 C.ar     1 ZINC000058403898   -0.1200
20     C20     0.7728   -0.6803   -1.2508 C.ar     1 ZINC000058403898   -0.1100
21     C21     1.6414   -1.5115   -0.5676 C.ar     1 ZINC000058403898   -0.1300
22     C22     1.2553   -2.0859    0.6295 C.ar     1 ZINC000058403898   -0.1100
23     C23     0.0023   -1.8259    1.1494 C.ar     1 ZINC000058403898   -0.1100
24     N24    -2.9391   -1.6006    1.5177 N.2      1 ZINC000058403898   -0.0900
25     N25    -4.0285   -1.0351    1.9012 N.2      1 ZINC000058403898   -0.3500
26     H26    -2.6871    2.6130    1.0508 H        1 ZINC000058403898    0.0600
27     H27    -1.1435    1.8181    0.6591 H        1 ZINC000058403898    0.1000
28     H28    -3.9857    0.4172   -0.9573 H        1 ZINC000058403898    0.0900
29     H29    -4.5950    2.0641   -0.6490 H        1 ZINC000058403898    0.0700
30     H30    -3.3419    1.1905   -3.2944 H        1 ZINC000058403898    0.0700
31     H31    -5.0986    1.1985   -2.9861 H        1 ZINC000058403898    0.0800
32     H32    -4.1504    3.3176   -4.0883 H        1 ZINC000058403898    0.0800
33     H33    -5.1133    3.5746   -2.6144 H        1 ZINC000058403898    0.0800
34     H34    -3.2699    5.5962   -3.5431 H        1 ZINC000058403898    0.1400
35     H35    -0.0342    5.6979   -0.7669 H        1 ZINC000058403898    0.1400
36     H36    -1.1620    0.2271   -1.2733 H        1 ZINC000058403898    0.1500
37     H37     1.0770   -0.2333   -2.1857 H        1 ZINC000058403898    0.1300
38     H38     2.6233   -1.7127   -0.9699 H        1 ZINC000058403898    0.1200
39     H39     1.9357   -2.7349    1.1607 H        1 ZINC000058403898    0.1300
40     H40    -0.2988   -2.2749    2.0844 H        1 ZINC000058403898    0.1300
@<TRIPOS>BOND
1     1     2     1
2     2     25    1
3     2     3     2
4     3     4     1
5     3     17    1
6     4     5     1
7     4     26    1
8     4     27    1
9     5     16    1
10    5     6     1
11    6     7     1
12    6     28    1
13    6     29    1
14    7     8     1
15    7     30    1
16    7     31    1
17    8     9     1
18    8     32    1
19    8     33    1
20    9     16    ar
21    9     10    ar
22    10    11    ar
23    10    34    1
24    11    12    1
25    11    13    ar
26    13    14    ar
27    13    35    1
28    14    15    1
29    14    16    ar
30    17    18    1
31    17    24    1
32    18    23    ar
33    18    19    ar
34    19    20    ar
35    19    36    1
36    20    21    ar
37    20    37    1
38    21    22    ar
39    21    38    1
40    22    23    ar
41    22    39    1
42    23    40    1
43    24    25    2
@<TRIPOS>SUBSTRUCTURE
1   ZINC000058403898 1     RESIDUE    1   A     ZIN   1
@<TRIPOS>MOLECULE
ZINC000064947080
39    41    1     0     0
SMALL
USER_CHARGES
@<TRIPOS>ATOM
1      C1      0.5177    1.6631    0.3782 C.3      1 ZINC000064947080   -0.1200
2      C2      0.4345    0.1641    0.2472 C.ar     1 ZINC000064947080   -0.0600
3      C3      0.5109   -0.4252   -1.0012 C.ar     1 ZINC000064947080   -0.1300
4      C4      0.4354   -1.8006   -1.1259 C.ar     1 ZINC000064947080   -0.0900
5      C5      0.2829   -2.5899   -0.0031 C.ar     1 ZINC000064947080   -0.1800
6      C6      0.2058   -2.0009    1.2528 C.ar     1 ZINC000064947080    0.1500
7      N7      0.0520   -2.7963    2.3906 N.am     1 ZINC000064947080   -1.0500
8      S8      0.7902   -4.2765    2.4721 S.o2     1 ZINC000064947080    2.7000
9      O9      0.5640   -4.7658    3.7869 O.2      1 ZINC000064947080   -0.9400
10     O10     0.4019   -4.9834    1.3022 O.2      1 ZINC000064947080   -0.9400
11     C11     2.5253   -4.0023    2.3348 C.ar     1 ZINC000064947080   -0.6900
12     C12     3.1340   -3.9921    1.0919 C.ar     1 ZINC000064947080    0.0200
13     C13     4.4875   -3.7787    0.9715 C.ar     1 ZINC000064947080   -0.1400
14     C14     5.2839   -3.5666    2.1069 C.ar     1 ZINC000064947080    0.1900
15     C15     4.6509   -3.5807    3.3506 C.ar     1 ZINC000064947080   -0.1800
16     C16     3.2888   -3.7900    3.4668 C.ar     1 ZINC000064947080    0.0700
17     S17     5.9186   -3.2869    4.5489 S.3      1 ZINC000064947080    0.0100
18     C18     7.2205   -3.1597    3.3544 C.2      1 ZINC000064947080    0.5200
19     O19     8.3990   -2.9511    3.5762 O.2      1 ZINC000064947080   -0.4500
20     N20     6.6474   -3.3395    2.1604 N.am     1 ZINC000064947080   -0.5400
21     C21     7.4469   -3.2973    0.9335 C.3      1 ZINC000064947080    0.0600
22     C22     0.2877   -0.6198    1.3750 C.ar     1 ZINC000064947080   -0.1000
23     C23     0.2045    0.0234    2.7352 C.3      1 ZINC000064947080   -0.1200
24     H24     1.5596    1.9601    0.4980 H        1 ZINC000064947080    0.0700
25     H25     0.1076    2.1294   -0.5176 H        1 ZINC000064947080    0.0700
26     H26    -0.0540    1.9840    1.2490 H        1 ZINC000064947080    0.0700
27     H27     0.6294    0.1898   -1.8810 H        1 ZINC000064947080    0.1300
28     H28     0.4954   -2.2578   -2.1025 H        1 ZINC000064947080    0.1300
29     H29     0.2234   -3.6638   -0.1013 H        1 ZINC000064947080    0.1600
30     H30    -0.4871   -2.4817    3.1331 H        1 ZINC000064947080    0.4300
31     H31     2.5388   -4.1540    0.2054 H        1 ZINC000064947080    0.1500
32     H32     4.9423   -3.7747   -0.0081 H        1 ZINC000064947080    0.1500
33     H33     2.8238   -3.7957    4.4415 H        1 ZINC000064947080    0.1600
34     H34     8.4902   -3.1082    1.1861 H        1 ZINC000064947080    0.1000
35     H35     7.3661   -4.2523    0.4142 H        1 ZINC000064947080    0.0800
36     H36     7.0792   -2.5002    0.2874 H        1 ZINC000064947080    0.0800
37     H37     1.2054    0.1096    3.1582 H        1 ZINC000064947080    0.0700
38     H38    -0.2370    1.0156    2.6416 H        1 ZINC000064947080    0.0800
39     H39    -0.4150   -0.5896    3.3898 H        1 ZINC000064947080    0.0600
@<TRIPOS>BOND
1     1     2     1
2     1     24    1
3     1     25    1
4     1     26    1
5     2     22    ar
6     2     3     ar
7     3     4     ar
8     3     27    1
9     4     5     ar
10    4     28    1
11    5     6     ar
12    5     29    1
13    6     7     1
14    6     22    ar
15    7     8     am
16    7     30    1
17    8     9     2
18    8     10    2
19    8     11    1
20    11    16    ar
21    11    12    ar
22    12    13    ar
23    12    31    1
24    13    14    ar
25    13    32    1
26    14    20    1
27    14    15    ar
28    15    16    ar
29    15    17    1
30    16    33    1
31    17    18    1
32    18    19    2
33    18    20    am
34    20    21    1
35    21    34    1
36    21    35    1
37    21    36    1
38    22    23    1
39    23    37    1
40    23    38    1
41    23    39    1
@<TRIPOS>SUBSTRUCTURE
1   ZINC000064947080 1     RESIDUE    1   A     ZIN   1

@<TRIPOS>MOLECULE
ZINC000064947080
38    40    1     0     0
SMALL
USER_CHARGES
@<TRIPOS>ATOM
1      C1     -0.0184    1.5028    0.0103 C.3      1 ZINC000064947080   -0.1100
2      C2      0.0021   -0.0041    0.0020 C.ar     1 ZINC000064947080   -0.0600
3      C3      0.0058   -0.6880   -1.1996 C.ar     1 ZINC000064947080   -0.2200
4      C4      0.0250   -2.0709   -1.2117 C.ar     1 ZINC000064947080   -0.0700
5      C5      0.0400   -2.7732   -0.0230 C.ar     1 ZINC000064947080   -0.2700
6      C6      0.0364   -2.0891    1.1863 C.ar     1 ZINC000064947080    0.2800
7      N7      0.0520   -2.7963    2.3906 N.pl3    1 ZINC000064947080   -1.0800
8      S8      0.0750   -4.4521    2.3782 S.o2     1 ZINC000064947080    2.6000
9      O9     -1.1717   -4.8667    1.8369 O.2      1 ZINC000064947080   -1.0300
10     O10     1.3275   -4.8319    1.8248 O.2      1 ZINC000064947080   -1.0300
11     C11     0.0906   -4.9861    4.0573 C.ar     1 ZINC000064947080   -0.6200
12     C12     1.2918   -5.1754    4.7183 C.ar     1 ZINC000064947080    0.0100
13     C13     1.3172   -5.5915    6.0291 C.ar     1 ZINC000064947080   -0.1400
14     C14     0.1250   -5.8346    6.7277 C.ar     1 ZINC000064947080    0.1600
15     C15    -1.0753   -5.6378    6.0433 C.ar     1 ZINC000064947080   -0.1700
16     C16    -1.0964   -5.2138    4.7270 C.ar     1 ZINC000064947080    0.0600
17     S17    -2.3635   -6.0257    7.1919 S.3      1 ZINC000064947080    0.0000
18     C18    -1.2594   -6.4282    8.5174 C.2      1 ZINC000064947080    0.5200
19     O19    -1.5641   -6.7906    9.6387 O.2      1 ZINC000064947080   -0.4700
20     N20    -0.0243   -6.2539    8.0374 N.am     1 ZINC000064947080   -0.5400
21     C21     1.1474   -6.5023    8.8809 C.3      1 ZINC000064947080    0.0700
22     C22     0.0229   -0.7003    1.1948 C.ar     1 ZINC000064947080   -0.1500
23     C23     0.0188    0.0461    2.5040 C.3      1 ZINC000064947080   -0.0800
24     H24     1.0042    1.8801    0.0026 H        1 ZINC000064947080    0.0600
25     H25    -0.5455    1.8639   -0.8728 H        1 ZINC000064947080    0.0500
26     H26    -0.5286    1.8543    0.9071 H        1 ZINC000064947080    0.0600
27     H27    -0.0067   -0.1412   -2.1308 H        1 ZINC000064947080    0.1000
28     H28     0.0278   -2.6021   -2.1521 H        1 ZINC000064947080    0.1000
29     H29     0.0543   -3.8530   -0.0331 H        1 ZINC000064947080    0.0900
30     H30     2.2208   -4.9945    4.1982 H        1 ZINC000064947080    0.1500
31     H31     2.2656   -5.7331    6.5260 H        1 ZINC000064947080    0.1400
32     H32    -2.0393   -5.0689    4.2207 H        1 ZINC000064947080    0.1500
33     H33     0.8214   -6.8227    9.8704 H        1 ZINC000064947080    0.1000
34     H34     1.7608   -7.2825    8.4301 H        1 ZINC000064947080    0.0800
35     H35     1.7319   -5.5866    8.9697 H        1 ZINC000064947080    0.0800
36     H36     1.0455    0.2360    2.8171 H        1 ZINC000064947080    0.0500
37     H37    -0.5046    0.9941    2.3802 H        1 ZINC000064947080    0.0400
38     H38    -0.4873   -0.5522    3.2617 H        1 ZINC000064947080    0.0700
@<TRIPOS>BOND
1     1     2     1
2     1     24    1
3     1     25    1
4     1     26    1
5     2     22    ar
6     2     3     ar
7     3     4     ar
8     3     27    1
9     4     5     ar
10    4     28    1
11    5     6     ar
12    5     29    1
13    6     7     1
14    6     22    ar
15    7     8     1
16    8     9     2
17    8     10    2
18    8     11    1
19    11    16    ar
20    11    12    ar
21    12    13    ar
22    12    30    1
23    13    14    ar
24    13    31    1
25    14    20    1
26    14    15    ar
27    15    16    ar
28    15    17    1
29    16    32    1
30    17    18    1
31    18    19    2
32    18    20    am
33    20    21    1
34    21    33    1
35    21    34    1
36    21    35    1
37    22    23    1
38    23    36    1
39    23    37    1
40    23    38    1
@<TRIPOS>SUBSTRUCTURE
1   ZINC000064947080 1     RESIDUE    1   A     ZIN   1
@<TRIPOS>MOLECULE
ZINC000064947081
39    41    1     0     0
SMALL
USER_CHARGES
@<TRIPOS>ATOM
1      C1     -1.9169   -2.0455    1.6351 C.3      1 ZINC000064947081   -0.1200
2      C2     -0.7577   -1.6777    0.7452 C.ar     1 ZINC000064947081   -0.0700
3      C3     -0.6662   -2.2092   -0.5261 C.ar     1 ZINC000064947081   -0.1200
4      C4      0.3975   -1.8726   -1.3431 C.ar     1 ZINC000064947081   -0.1000
5      C5      1.3727   -1.0028   -0.8907 C.ar     1 ZINC000064947081   -0.1200
6      C6      1.2874   -0.4676    0.3795 C.ar     1 ZINC000064947081   -0.0600
7      C7      2.3509    0.4798    0.8719 C.3      1 ZINC000064947081   -0.1200
8      C8      0.2172   -0.7992    1.2008 C.ar     1 ZINC000064947081    0.1100
9      N9      0.1278   -0.2597    2.4860 N.am     1 ZINC000064947081   -1.0500
10     S10    -0.1814    1.3548    2.6867 S.o2     1 ZINC000064947081    2.6900
11     O11    -0.2112    1.5865    4.0883 O.2      1 ZINC000064947081   -0.9500
12     O12     0.6931    2.0436    1.8035 O.2      1 ZINC000064947081   -0.9300
13     C13    -1.8160    1.6498    2.0987 C.ar     1 ZINC000064947081   -0.6900
14     C14    -2.0421    1.8839    0.7535 C.ar     1 ZINC000064947081    0.0200
15     C15    -3.3135    2.1151    0.2821 C.ar     1 ZINC000064947081   -0.1400
16     C16    -4.4121    2.1195    1.1547 C.ar     1 ZINC000064947081    0.1900
17     C17    -4.1628    1.8814    2.5071 C.ar     1 ZINC000064947081   -0.1800
18     C18    -2.8836    1.6438    2.9759 C.ar     1 ZINC000064947081    0.0600
19     S19    -5.7346    1.9550    3.3154 S.3      1 ZINC000064947081    0.0100
20     C20    -6.6438    2.2956    1.8337 C.2      1 ZINC000064947081    0.5200
21     O21    -7.8455    2.4619    1.7347 O.2      1 ZINC000064947081   -0.4500
22     N22    -5.7436    2.3337    0.8465 N.am     1 ZINC000064947081   -0.5400
23     C23    -6.1583    2.5973   -0.5336 C.3      1 ZINC000064947081    0.0600
24     H24    -2.6992   -1.2921    1.5427 H        1 ZINC000064947081    0.0700
25     H25    -2.3108   -3.0168    1.3358 H        1 ZINC000064947081    0.0700
26     H26    -1.5793   -2.0937    2.6704 H        1 ZINC000064947081    0.0700
27     H27    -1.4261   -2.8889   -0.8825 H        1 ZINC000064947081    0.1300
28     H28     0.4670   -2.2903   -2.3367 H        1 ZINC000064947081    0.1300
29     H29     2.2021   -0.7420   -1.5313 H        1 ZINC000064947081    0.1300
30     H30     2.1274    1.4888    0.5252 H        1 ZINC000064947081    0.1100
31     H31     2.3730    0.4667    1.9616 H        1 ZINC000064947081    0.0600
32     H32     3.3214    0.1694    0.4850 H        1 ZINC000064947081    0.0600
33     H33     0.2468   -0.8307    3.2611 H        1 ZINC000064947081    0.4300
34     H34    -1.2098    1.8855    0.0653 H        1 ZINC000064947081    0.1500
35     H35    -3.4677    2.2955   -0.7714 H        1 ZINC000064947081    0.1400
36     H36    -2.7183    1.4619    4.0276 H        1 ZINC000064947081    0.1600
37     H37    -7.2387    2.7379   -0.5677 H        1 ZINC000064947081    0.1000
38     H38    -5.6631    3.4980   -0.8961 H        1 ZINC000064947081    0.0800
39     H39    -5.8819    1.7520   -1.1638 H        1 ZINC000064947081    0.0800
@<TRIPOS>BOND
1     1     2     1
2     1     24    1
3     1     25    1
4     1     26    1
5     2     8     ar
6     2     3     ar
7     3     4     ar
8     3     27    1
9     4     5     ar
10    4     28    1
11    5     6     ar
12    5     29    1
13    6     7     1
14    6     8     ar
15    7     30    1
16    7     31    1
17    7     32    1
18    8     9     1
19    9     10    am
20    9     33    1
21    10    11    2
22    10    12    2
23    10    13    1
24    13    18    ar
25    13    14    ar
26    14    15    ar
27    14    34    1
28    15    16    ar
29    15    35    1
30    16    22    1
31    16    17    ar
32    17    18    ar
33    17    19    1
34    18    36    1
35    19    20    1
36    20    21    2
37    20    22    am
38    22    23    1
39    23    37    1
40    23    38    1
41    23    39    1
@<TRIPOS>SUBSTRUCTURE
1   ZINC000064947081 1     RESIDUE    1   A     ZIN   1

@<TRIPOS>MOLECULE
ZINC000064947081
38    40    1     0     0
SMALL
USER_CHARGES
@<TRIPOS>ATOM
1      C1     -2.0980    0.1062    0.5323 C.3      1 ZINC000064947081   -0.1000
2      C2     -0.8314   -0.6590    0.2469 C.ar     1 ZINC000064947081   -0.1700
3      C3     -0.7198   -1.4039   -0.9107 C.ar     1 ZINC000064947081   -0.1100
4      C4      0.4419   -2.1067   -1.1732 C.ar     1 ZINC000064947081   -0.1800
5      C5      1.4955   -2.0659   -0.2785 C.ar     1 ZINC000064947081   -0.1100
6      C6      1.3906   -1.3229    0.8809 C.ar     1 ZINC000064947081   -0.1300
7      C7      2.5392   -1.2794    1.8555 C.3      1 ZINC000064947081   -0.0900
8      C8      0.2273   -0.6112    1.1450 C.ar     1 ZINC000064947081    0.2500
9      N9      0.1178    0.1413    2.3166 N.pl3    1 ZINC000064947081   -1.1200
10     S10    -0.0561    1.7859    2.2312 S.o2     1 ZINC000064947081    2.6000
11     O11     1.0227    2.2628    1.4387 O.2      1 ZINC000064947081   -1.0400
12     O12    -1.4198    2.0294    1.9149 O.2      1 ZINC000064947081   -1.0200
13     C13     0.1995    2.4224    3.8542 C.ar     1 ZINC000064947081   -0.6100
14     C14    -0.8663    2.5575    4.7267 C.ar     1 ZINC000064947081    0.0100
15     C15    -0.6797    3.0525    5.9963 C.ar     1 ZINC000064947081   -0.1400
16     C16     0.5967    3.4331    6.4373 C.ar     1 ZINC000064947081    0.1600
17     C17     1.6579    3.2891    5.5424 C.ar     1 ZINC000064947081   -0.1700
18     C18     1.4667    2.7855    4.2686 C.ar     1 ZINC000064947081    0.0500
19     S19     3.1005    3.8499    6.3988 S.3      1 ZINC000064947081   -0.0100
20     C20     2.2366    4.2469    7.8935 C.2      1 ZINC000064947081    0.5200
21     O21     2.7148    4.7027    8.9158 O.2      1 ZINC000064947081   -0.4700
22     N22     0.9536    3.9452    7.6718 N.am     1 ZINC000064947081   -0.5400
23     C23    -0.0541    4.1530    8.7146 C.3      1 ZINC000064947081    0.0700
24     H24    -1.9904    1.1316    0.1789 H        1 ZINC000064947081    0.0700
25     H25    -2.9334   -0.3695    0.0186 H        1 ZINC000064947081    0.0400
26     H26    -2.2861    0.1097    1.6060 H        1 ZINC000064947081    0.0800
27     H27    -1.5408   -1.4379   -1.6115 H        1 ZINC000064947081    0.1000
28     H28     0.5263   -2.6891   -2.0788 H        1 ZINC000064947081    0.1000
29     H29     2.4014   -2.6159   -0.4866 H        1 ZINC000064947081    0.1000
30     H30     3.2004   -0.4510    1.6012 H        1 ZINC000064947081    0.0500
31     H31     2.1537   -1.1397    2.8655 H        1 ZINC000064947081    0.0700
32     H32     3.0943   -2.2161    1.8049 H        1 ZINC000064947081    0.0400
33     H33    -1.8571    2.2708    4.4065 H        1 ZINC000064947081    0.1500
34     H34    -1.5253    3.1497    6.6611 H        1 ZINC000064947081    0.1400
35     H35     2.3054    2.6840    3.5958 H        1 ZINC000064947081    0.1500
36     H36     0.4237    4.5603    9.6056 H        1 ZINC000064947081    0.1000
37     H37    -0.8096    4.8519    8.3557 H        1 ZINC000064947081    0.0800
38     H38    -0.5263    3.2013    8.9584 H        1 ZINC000064947081    0.0800
@<TRIPOS>BOND
1     1     2     1
2     1     24    1
3     1     25    1
4     1     26    1
5     2     8     ar
6     2     3     ar
7     3     4     ar
8     3     27    1
9     4     5     ar
10    4     28    1
11    5     6     ar
12    5     29    1
13    6     7     1
14    6     8     ar
15    7     30    1
16    7     31    1
17    7     32    1
18    8     9     1
19    9     10    1
20    10    11    2
21    10    12    2
22    10    13    1
23    13    18    ar
24    13    14    ar
25    14    15    ar
26    14    33    1
27    15    16    ar
28    15    34    1
29    16    22    1
30    16    17    ar
31    17    18    ar
32    17    19    1
33    18    35    1
34    19    20    1
35    20    21    2
36    20    22    am
37    22    23    1
38    23    36    1
39    23    37    1
40    23    38    1
@<TRIPOS>SUBSTRUCTURE
1   ZINC000064947081 1     RESIDUE    1   A     ZIN   1
@<TRIPOS>MOLECULE
ZINC000069420078
41    43    1     0     0
SMALL
USER_CHARGES
@<TRIPOS>ATOM
1      C1      0.1680   -0.7564    0.4232 C.3      1 ZINC000069420078   -0.6700
2      S2      0.8083   -2.1276   -0.5770 S.o2     1 ZINC000069420078    2.6000
3      O3      1.9637   -2.6902    0.0295 O.2      1 ZINC000069420078   -0.9400
4      O4     -0.2557   -2.9525   -1.0317 O.2      1 ZINC000069420078   -0.9400
5      N5      1.3804   -1.4039   -1.9523 N.am     1 ZINC000069420078   -1.0500
6      C6      2.3933   -0.4430   -1.8674 C.ar     1 ZINC000069420078    0.1300
7      C7      3.3086   -0.4915   -0.8298 C.ar     1 ZINC000069420078   -0.1000
8      C8      4.3180    0.4700   -0.7493 C.ar     1 ZINC000069420078   -0.1100
9      C9      5.2982    0.4241    0.3547 C.2      1 ZINC000069420078    0.5600
10     O10     4.9906   -0.0737    1.4203 O.2      1 ZINC000069420078   -0.5000
11     N11     6.5335    0.9341    0.1806 N.am     1 ZINC000069420078   -0.5500
12     C12     6.9627    1.4181   -1.1386 C.3      1 ZINC000069420078    0.0800
13     C13     8.3810    0.8910   -1.3927 C.3      1 ZINC000069420078   -0.1400
14     C14     9.3234    1.4845   -0.3458 C.3      1 ZINC000069420078   -0.0800
15     C15     8.7750    1.2688    1.0400 C.ar     1 ZINC000069420078   -0.1100
16     C16     9.6394    1.3307    2.1199 C.ar     1 ZINC000069420078   -0.1000
17     C17     9.1661    1.1395    3.4038 C.ar     1 ZINC000069420078   -0.1400
18     C18     7.8241    0.8851    3.6186 C.ar     1 ZINC000069420078   -0.1000
19     C19     6.9554    0.8212    2.5474 C.ar     1 ZINC000069420078   -0.1500
20     C20     7.4277    1.0170    1.2559 C.ar     1 ZINC000069420078    0.1500
21     C21     4.3984    1.4748   -1.7155 C.ar     1 ZINC000069420078   -0.0900
22     C22     3.4823    1.5159   -2.7462 C.ar     1 ZINC000069420078   -0.1300
23     C23     2.4848    0.5596   -2.8300 C.ar     1 ZINC000069420078    0.1000
24     F24     1.5908    0.6056   -3.8419 F        1 ZINC000069420078   -0.1300
25     H25     0.9747   -0.0555    0.6376 H        1 ZINC000069420078    0.1300
26     H26    -0.6221   -0.2442   -0.1259 H        1 ZINC000069420078    0.1300
27     H27    -0.2334   -1.1457    1.3588 H        1 ZINC000069420078    0.1400
28     H28     1.0131   -1.6464   -2.8167 H        1 ZINC000069420078    0.4300
29     H29     3.2419   -1.2705   -0.0847 H        1 ZINC000069420078    0.1800
30     H30     6.2865    1.0435   -1.9071 H        1 ZINC000069420078    0.1100
31     H31     6.9665    2.5080   -1.1487 H        1 ZINC000069420078    0.0800
32     H32     8.3861   -0.1961   -1.3142 H        1 ZINC000069420078    0.0800
33     H33     8.7081    1.1886   -2.3890 H        1 ZINC000069420078    0.0900
34     H34    10.2984    1.0038   -0.4257 H        1 ZINC000069420078    0.0800
35     H35     9.4342    2.5537   -0.5264 H        1 ZINC000069420078    0.0800
36     H36    10.6886    1.5292    1.9578 H        1 ZINC000069420078    0.1300
37     H37     9.8460    1.1884    4.2415 H        1 ZINC000069420078    0.1200
38     H38     7.4560    0.7362    4.6230 H        1 ZINC000069420078    0.1300
39     H39     5.9070    0.6225    2.7138 H        1 ZINC000069420078    0.1700
40     H40     5.1777    2.2201   -1.6558 H        1 ZINC000069420078    0.1600
41     H41     3.5462    2.2939   -3.4926 H        1 ZINC000069420078    0.1500
@<TRIPOS>BOND
1     1     2     1
2     1     25    1
3     1     26    1
4     1     27    1
5     2     3     2
6     2     4     2
7     2     5     am
8     5     6     1
9     5     28    1
10    6     23    ar
11    6     7     ar
12    7     8     ar
13    7     29    1
14    8     9     1
15    8     21    ar
16    9     10    2
17    9     11    am
18    11    20    1
19    11    12    1
20    12    13    1
21    12    30    1
22    12    31    1
23    13    14    1
24    13    32    1
25    13    33    1
26    14    15    1
27    14    34    1
28    14    35    1
29    15    20    ar
30    15    16    ar
31    16    17    ar
32    16    36    1
33    17    18    ar
34    17    37    1
35    18    19    ar
36    18    38    1
37    19    20    ar
38    19    39    1
39    21    22    ar
40    21    40    1
41    22    23    ar
42    22    41    1
43    23    24    1
@<TRIPOS>SUBSTRUCTURE
1   ZINC000069420078 1     RESIDUE    1   A     ZIN   1

@<TRIPOS>MOLECULE
ZINC000069420078
40    42    1     0     0
SMALL
USER_CHARGES
@<TRIPOS>ATOM
1      C1      1.5467    3.0369   -7.7197 C.3      1 ZINC000069420078   -0.6500
2      S2      2.8311    1.7574   -7.6600 S.o2     1 ZINC000069420078    2.5400
3      O3      2.9657    1.1265   -8.9261 O.2      1 ZINC000069420078   -1.0200
4      O4      3.9695    2.2264   -6.9505 O.2      1 ZINC000069420078   -1.0200
5      N5      2.1970    0.5806   -6.6827 N.pl3    1 ZINC000069420078   -1.1000
6      C6      2.9345   -0.5769   -6.4129 C.ar     1 ZINC000069420078    0.2600
7      C7      2.4022   -1.5635   -5.6004 C.ar     1 ZINC000069420078   -0.1100
8      C8      3.1423   -2.7173   -5.3340 C.ar     1 ZINC000069420078   -0.1100
9      C9      2.5805   -3.7741   -4.4685 C.2      1 ZINC000069420078    0.5700
10     O10     2.0261   -3.4769   -3.4281 O.2      1 ZINC000069420078   -0.5100
11     N11     2.6824   -5.0679   -4.8320 N.am     1 ZINC000069420078   -0.5500
12     C12     3.3935   -5.4444   -6.0614 C.3      1 ZINC000069420078    0.0900
13     C13     2.5396   -6.4857   -6.7967 C.3      1 ZINC000069420078   -0.1400
14     C14     2.4211   -7.7337   -5.9221 C.3      1 ZINC000069420078   -0.0800
15     C15     1.9662   -7.3643   -4.5349 C.ar     1 ZINC000069420078   -0.1200
16     C16     1.3906   -8.3384   -3.7369 C.ar     1 ZINC000069420078   -0.1000
17     C17     0.9654   -8.0310   -2.4587 C.ar     1 ZINC000069420078   -0.1500
18     C18     1.1126   -6.7469   -1.9677 C.ar     1 ZINC000069420078   -0.1000
19     C19     1.6850   -5.7694   -2.7571 C.ar     1 ZINC000069420078   -0.1600
20     C20     2.1170   -6.0765   -4.0410 C.ar     1 ZINC000069420078    0.1600
21     C21     4.4146   -2.8694   -5.8885 C.ar     1 ZINC000069420078   -0.1800
22     C22     4.9377   -1.8815   -6.6971 C.ar     1 ZINC000069420078   -0.1000
23     C23     4.2023   -0.7400   -6.9663 C.ar     1 ZINC000069420078   -0.0300
24     F24     4.7203    0.2237   -7.7590 F        1 ZINC000069420078   -0.1300
25     H25     0.6313    2.6138   -8.1336 H        1 ZINC000069420078    0.1100
26     H26     1.3535    3.4052   -6.7121 H        1 ZINC000069420078    0.1100
27     H27     1.8833    3.8606   -8.3493 H        1 ZINC000069420078    0.1000
28     H28     1.4177   -1.4409   -5.1736 H        1 ZINC000069420078    0.1300
29     H29     3.5296   -4.5663   -6.6927 H        1 ZINC000069420078    0.1200
30     H30     4.3635   -5.8732   -5.8102 H        1 ZINC000069420078    0.0800
31     H31     1.5471   -6.0766   -6.9856 H        1 ZINC000069420078    0.0700
32     H32     3.0153   -6.7462   -7.7422 H        1 ZINC000069420078    0.0900
33     H33     1.6986   -8.4178   -6.3674 H        1 ZINC000069420078    0.0800
34     H34     3.3922   -8.2253   -5.8633 H        1 ZINC000069420078    0.0700
35     H35     1.2733   -9.3431   -4.1153 H        1 ZINC000069420078    0.1200
36     H36     0.5167   -8.7955   -1.8418 H        1 ZINC000069420078    0.1200
37     H37     0.7799   -6.5087   -0.9682 H        1 ZINC000069420078    0.1200
38     H38     1.8005   -4.7660   -2.3749 H        1 ZINC000069420078    0.1800
39     H39     4.9896   -3.7604   -5.6841 H        1 ZINC000069420078    0.1200
40     H40     5.9221   -2.0012   -7.1250 H        1 ZINC000069420078    0.1200
@<TRIPOS>BOND
1     1     2     1
2     1     25    1
3     1     26    1
4     1     27    1
5     2     3     2
6     2     4     2
7     2     5     1
8     5     6     1
9     6     23    ar
10    6     7     ar
11    7     8     ar
12    7     28    1
13    8     9     1
14    8     21    ar
15    9     10    2
16    9     11    am
17    11    20    1
18    11    12    1
19    12    13    1
20    12    29    1
21    12    30    1
22    13    14    1
23    13    31    1
24    13    32    1
25    14    15    1
26    14    33    1
27    14    34    1
28    15    20    ar
29    15    16    ar
30    16    17    ar
31    16    35    1
32    17    18    ar
33    17    36    1
34    18    19    ar
35    18    37    1
36    19    20    ar
37    19    38    1
38    21    22    ar
39    21    39    1
40    22    23    ar
41    22    40    1
42    23    24    1
@<TRIPOS>SUBSTRUCTURE
1   ZINC000069420078 1     RESIDUE    1   A     ZIN   1
@<TRIPOS>MOLECULE
ZINC000073635631
33    35    1     0     0
SMALL
USER_CHARGES
@<TRIPOS>ATOM
1      O1      0.0021   -0.0041    0.0020 O.2      1 ZINC000073635631   -1.0200
2      S2     -0.0172    1.4168    0.0098 S.o2     1 ZINC000073635631    2.6000
3      O3      1.1617    2.2101    0.0028 O.2      1 ZINC000073635631   -1.0100
4      N4     -0.9002    1.8797   -1.3124 N.pl3    1 ZINC000073635631   -1.0800
5      C5     -0.4164    1.6268   -2.5996 C.ar     1 ZINC000073635631    0.2900
6      C6      0.8021    0.9821   -2.7695 C.ar     1 ZINC000073635631   -0.2400
7      C7      1.2792    0.7322   -4.0406 C.ar     1 ZINC000073635631   -0.0600
8      C8      0.5415    1.1255   -5.1489 C.ar     1 ZINC000073635631    0.0000
9      N9      1.0270    0.8711   -6.4414 N.pl3    1 ZINC000073635631   -0.3800
10     C10     0.4151    1.2042   -7.6217 C.2      1 ZINC000073635631   -0.0600
11     C11     1.2206    0.7771   -8.6129 C.2      1 ZINC000073635631   -0.0400
12     N12     2.2960    0.1985   -8.0583 N.2      1 ZINC000073635631   -0.5000
13     C13     2.1943    0.2539   -6.7580 C.2      1 ZINC000073635631    0.1700
14     C14    -0.6764    1.7699   -4.9795 C.ar     1 ZINC000073635631   -0.0800
15     C15    -1.1569    2.0151   -3.7088 C.ar     1 ZINC000073635631   -0.1600
16     C16    -0.9297    1.8941    1.4396 C.ar     1 ZINC000073635631   -0.6300
17     C17    -1.4222    0.9304    2.2983 C.ar     1 ZINC000073635631   -0.0300
18     C18    -2.1397    1.3055    3.4217 C.ar     1 ZINC000073635631    0.0600
19     F19    -2.6218    0.3631    4.2612 F        1 ZINC000073635631   -0.1400
20     C20    -2.3626    2.6462    3.6848 C.ar     1 ZINC000073635631   -0.0900
21     C21    -1.8695    3.6102    2.8260 C.ar     1 ZINC000073635631   -0.1500
22     C22    -1.1482    3.2354    1.7055 C.ar     1 ZINC000073635631    0.1900
23     F23    -0.6662    4.1778    0.8661 F        1 ZINC000073635631   -0.1100
24     H24     1.3765    0.6768   -1.9074 H        1 ZINC000073635631    0.1100
25     H25     2.2266    0.2310   -4.1729 H        1 ZINC000073635631    0.1100
26     H26    -0.5315    1.7118   -7.7351 H        1 ZINC000073635631    0.1700
27     H27     1.0331    0.8822   -9.6713 H        1 ZINC000073635631    0.1700
28     H28     2.9145   -0.1330   -6.0523 H        1 ZINC000073635631    0.2000
29     H29    -1.2498    2.0760   -5.8420 H        1 ZINC000073635631    0.1200
30     H30    -2.1046    2.5161   -3.5771 H        1 ZINC000073635631    0.1300
31     H31    -1.2480   -0.1155    2.0932 H        1 ZINC000073635631    0.1600
32     H32    -2.9222    2.9387    4.5610 H        1 ZINC000073635631    0.1500
33     H33    -2.0438    4.6562    3.0311 H        1 ZINC000073635631    0.1500
@<TRIPOS>BOND
1     1     2     2
2     2     3     2
3     2     4     1
4     2     16    1
5     4     5     1
6     5     15    ar
7     5     6     ar
8     6     7     ar
9     6     24    1
10    7     8     ar
11    7     25    1
12    8     9     1
13    8     14    ar
14    9     13    1
15    9     10    1
16    10    11    2
17    10    26    1
18    11    12    1
19    11    27    1
20    12    13    2
21    13    28    1
22    14    15    ar
23    14    29    1
24    15    30    1
25    16    22    ar
26    16    17    ar
27    17    18    ar
28    17    31    1
29    18    19    1
30    18    20    ar
31    20    21    ar
32    20    32    1
33    21    22    ar
34    21    33    1
35    22    23    1
@<TRIPOS>SUBSTRUCTURE
1   ZINC000073635631 1     RESIDUE    1   A     ZIN   1

@<TRIPOS>MOLECULE
ZINC000073635631
34    36    1     0     0
SMALL
USER_CHARGES
@<TRIPOS>ATOM
1      O1     -0.3736    1.9379    1.1597 O.2      1 ZINC000073635631   -0.9400
2      S2      0.1060    1.4331   -0.0790 S.o2     1 ZINC000073635631    2.6900
3      O3      0.2984    0.0480   -0.3316 O.2      1 ZINC000073635631   -0.9300
4      N4     -0.9378    1.9800   -1.2424 N.am     1 ZINC000073635631   -1.0500
5      C5     -1.2478    3.3412   -1.3194 C.ar     1 ZINC000073635631    0.1300
6      C6     -1.5640    4.0481   -0.1662 C.ar     1 ZINC000073635631   -0.1200
7      C7     -1.8695    5.3921   -0.2427 C.ar     1 ZINC000073635631   -0.1100
8      C8     -1.8613    6.0372   -1.4719 C.ar     1 ZINC000073635631    0.1300
9      N9     -2.1721    7.4041   -1.5492 N.pl3    1 ZINC000073635631   -0.4100
10     C10    -2.2094    8.1680   -2.6865 C.2      1 ZINC000073635631   -0.0600
11     C11    -2.5489    9.4151   -2.3079 C.2      1 ZINC000073635631   -0.0200
12     N12    -2.7154    9.4177   -0.9772 N.2      1 ZINC000073635631   -0.4800
13     C13    -2.4982    8.2175   -0.5119 C.2      1 ZINC000073635631    0.1900
14     C14    -1.5454    5.3312   -2.6247 C.ar     1 ZINC000073635631   -0.1100
15     C15    -1.2342    3.9884   -2.5484 C.ar     1 ZINC000073635631   -0.1000
16     C16     1.6605    2.2117   -0.3652 C.ar     1 ZINC000073635631   -0.6900
17     C17     2.1779    3.0862    0.5709 C.ar     1 ZINC000073635631   -0.0300
18     C18     3.3993    3.6985    0.3458 C.ar     1 ZINC000073635631    0.0800
19     F19     3.9050    4.5539    1.2610 F        1 ZINC000073635631   -0.1200
20     C20     4.1024    3.4336   -0.8169 C.ar     1 ZINC000073635631   -0.0700
21     C21     3.5851    2.5585   -1.7531 C.ar     1 ZINC000073635631   -0.1400
22     C22     2.3662    1.9428   -1.5258 C.ar     1 ZINC000073635631    0.1900
23     F23     1.8605    1.0873   -2.4410 F        1 ZINC000073635631   -0.1100
24     H24    -1.3342    1.3560   -1.8705 H        1 ZINC000073635631    0.4300
25     H25    -1.5711    3.5461    0.7900 H        1 ZINC000073635631    0.1700
26     H26    -2.1153    5.9418    0.6539 H        1 ZINC000073635631    0.1400
27     H27    -2.0057    7.8340   -3.6932 H        1 ZINC000073635631    0.1800
28     H28    -2.6668   10.2659   -2.9627 H        1 ZINC000073635631    0.1800
29     H29    -2.5602    7.9226    0.5252 H        1 ZINC000073635631    0.2100
30     H30    -1.5395    5.8334   -3.5808 H        1 ZINC000073635631    0.1400
31     H31    -0.9881    3.4393   -3.4453 H        1 ZINC000073635631    0.1400
32     H32     1.6295    3.2926    1.4782 H        1 ZINC000073635631    0.1700
33     H33     5.0550    3.9111   -0.9925 H        1 ZINC000073635631    0.1600
34     H34     4.1334    2.3521   -2.6604 H        1 ZINC000073635631    0.1600
@<TRIPOS>BOND
1     1     2     2
2     2     3     2
3     2     4     am
4     2     16    1
5     4     5     1
6     4     24    1
7     5     15    ar
8     5     6     ar
9     6     7     ar
10    6     25    1
11    7     8     ar
12    7     26    1
13    8     9     1
14    8     14    ar
15    9     13    1
16    9     10    1
17    10    11    2
18    10    27    1
19    11    12    1
20    11    28    1
21    12    13    2
22    13    29    1
23    14    15    ar
24    14    30    1
25    15    31    1
26    16    22    ar
27    16    17    ar
28    17    18    ar
29    17    32    1
30    18    19    1
31    18    20    ar
32    20    21    ar
33    20    33    1
34    21    22    ar
35    21    34    1
36    22    23    1
@<TRIPOS>SUBSTRUCTURE
1   ZINC000073635631 1     RESIDUE    1   A     ZIN   1

@<TRIPOS>MOLECULE
ZINC000073635631
35    37    1     0     0
SMALL
USER_CHARGES
@<TRIPOS>ATOM
1      O1     -0.3736    1.9379    1.1597 O.2      1 ZINC000073635631   -0.9300
2      S2      0.1060    1.4331   -0.0790 S.o2     1 ZINC000073635631    2.6900
3      O3      0.2984    0.0480   -0.3316 O.2      1 ZINC000073635631   -0.9200
4      N4     -0.9378    1.9800   -1.2424 N.am     1 ZINC000073635631   -1.0600
5      C5     -1.2478    3.3412   -1.3194 C.ar     1 ZINC000073635631    0.1800
6      C6     -1.5640    4.0481   -0.1662 C.ar     1 ZINC000073635631   -0.1300
7      C7     -1.8695    5.3921   -0.2427 C.ar     1 ZINC000073635631   -0.0700
8      C8     -1.8613    6.0372   -1.4719 C.ar     1 ZINC000073635631    0.0700
9      N9     -2.1721    7.4041   -1.5492 N.pl3    1 ZINC000073635631   -0.3500
10     C10    -2.4950    8.2266   -0.5014 C.2      1 ZINC000073635631    0.0200
11     C11    -2.7174    9.4496   -1.0197 C.2      1 ZINC000073635631    0.0100
12     N12    -2.5364    9.3810   -2.3468 N.pl3    1 ZINC000073635631   -0.4700
13     H13    -2.6329   10.1221   -2.9651 H        1 ZINC000073635631    0.4700
14     C14    -2.2038    8.1621   -2.6753 C.cat    1 ZINC000073635631    0.2800
15     C15    -1.5454    5.3312   -2.6247 C.ar     1 ZINC000073635631   -0.0900
16     C16    -1.2342    3.9884   -2.5484 C.ar     1 ZINC000073635631   -0.1000
17     C17     1.6605    2.2117   -0.3652 C.ar     1 ZINC000073635631   -0.7000
18     C18     2.1779    3.0862    0.5709 C.ar     1 ZINC000073635631   -0.0300
19     C19     3.3993    3.6985    0.3458 C.ar     1 ZINC000073635631    0.0800
20     F20     3.9050    4.5539    1.2610 F        1 ZINC000073635631   -0.1200
21     C21     4.1024    3.4336   -0.8169 C.ar     1 ZINC000073635631   -0.0600
22     C22     3.5851    2.5585   -1.7531 C.ar     1 ZINC000073635631   -0.1400
23     C23     2.3662    1.9428   -1.5258 C.ar     1 ZINC000073635631    0.1900
24     F24     1.8605    1.0873   -2.4410 F        1 ZINC000073635631   -0.1100
25     H25    -1.3342    1.3560   -1.8705 H        1 ZINC000073635631    0.4400
26     H26    -1.5711    3.5461    0.7900 H        1 ZINC000073635631    0.1800
27     H27    -2.1153    5.9418    0.6539 H        1 ZINC000073635631    0.1500
28     H28    -2.5590    7.9475    0.5400 H        1 ZINC000073635631    0.2300
29     H29    -2.9935   10.3329   -0.4629 H        1 ZINC000073635631    0.2300
30     H30    -1.9959    7.8134   -3.6761 H        1 ZINC000073635631    0.2600
31     H31    -1.5395    5.8334   -3.5808 H        1 ZINC000073635631    0.1500
32     H32    -0.9881    3.4393   -3.4453 H        1 ZINC000073635631    0.1600
33     H33     1.6295    3.2926    1.4782 H        1 ZINC000073635631    0.1700
34     H34     5.0550    3.9111   -0.9925 H        1 ZINC000073635631    0.1600
35     H35     4.1334    2.3521   -2.6604 H        1 ZINC000073635631    0.1600
@<TRIPOS>BOND
1     1     2     2
2     2     3     2
3     2     4     am
4     2     17    1
5     4     5     1
6     4     25    1
7     5     16    ar
8     5     6     ar
9     6     7     ar
10    6     26    1
11    7     8     ar
12    7     27    1
13    8     9     1
14    8     15    ar
15    9     14    ar
16    9     10    1
17    10    11    2
18    10    28    1
19    11    12    1
20    11    29    1
21    12    13    1
22    12    14    ar
23    14    30    1
24    15    16    ar
25    15    31    1
26    16    32    1
27    17    23    ar
28    17    18    ar
29    18    19    ar
30    18    33    1
31    19    20    1
32    19    21    ar
33    21    22    ar
34    21    34    1
35    22    23    ar
36    22    35    1
37    23    24    1
@<TRIPOS>SUBSTRUCTURE
1   ZINC000073635631 1     RESIDUE    1   A     ZIN   1
@<TRIPOS>MOLECULE
ZINC000004199236
41    43    1     0     0
SMALL
USER_CHARGES
@<TRIPOS>ATOM
1      C1     -0.0184    1.5028    0.0103 C.3      1 ZINC000004199236   -0.1300
2      C2      0.0021   -0.0041    0.0020 C.ar     1 ZINC000004199236   -0.0200
3      C3      0.0057   -0.6887   -1.1989 C.ar     1 ZINC000004199236   -0.1400
4      C4      0.0245   -2.0709   -1.2065 C.ar     1 ZINC000004199236   -0.0100
5      C5      0.0400   -2.7685   -0.0132 C.ar     1 ZINC000004199236   -0.6900
6      S6      0.0633   -4.5303   -0.0229 S.o2     1 ZINC000004199236    2.6800
7      O7     -0.4690   -4.9455    1.2275 O.2      1 ZINC000004199236   -0.9100
8      O8     -0.4824   -4.9319   -1.2719 O.2      1 ZINC000004199236   -0.9300
9      N9      1.6514   -4.9995   -0.0340 N.am     1 ZINC000004199236   -0.8100
10     N10     2.4859   -5.1338   -1.1518 N.pl3    1 ZINC000004199236   -0.5100
11     C11     3.7501   -5.5466   -0.7694 C.2      1 ZINC000004199236    0.2000
12     C12     3.8257   -5.7013    0.5412 C.2      1 ZINC000004199236   -0.2600
13     C13     5.0545   -6.1415    1.2959 C.3      1 ZINC000004199236   -0.0400
14     C14     6.0446   -6.7580    0.3006 C.3      1 ZINC000004199236   -0.1200
15     C15     6.2083   -5.8125   -0.8934 C.3      1 ZINC000004199236   -0.1200
16     C16     4.9122   -5.7951   -1.7093 C.3      1 ZINC000004199236   -0.0600
17     C17     2.4813   -5.3559    1.1299 C.3      1 ZINC000004199236    0.3800
18     O18     2.5986   -4.2497    2.0269 O.3      1 ZINC000004199236   -0.5200
19     C19     1.8856   -6.5678    1.8491 C.3      1 ZINC000004199236    0.4100
20     F20     2.7441   -6.9675    2.8788 F        1 ZINC000004199236   -0.1600
21     F21     0.6403   -6.2252    2.3869 F        1 ZINC000004199236   -0.1500
22     F22     1.7275   -7.6187    0.9393 F        1 ZINC000004199236   -0.1700
23     C23     0.0378   -2.0839    1.1877 C.ar     1 ZINC000004199236   -0.0100
24     C24     0.0229   -0.7016    1.1953 C.ar     1 ZINC000004199236   -0.1400
25     H25     1.0042    1.8801    0.0026 H        1 ZINC000004199236    0.0800
26     H26    -0.5455    1.8639   -0.8728 H        1 ZINC000004199236    0.0800
27     H27    -0.5286    1.8543    0.9071 H        1 ZINC000004199236    0.0800
28     H28    -0.0064   -0.1436   -2.1312 H        1 ZINC000004199236    0.1400
29     H29     0.0266   -2.6057   -2.1448 H        1 ZINC000004199236    0.1400
30     H30     2.2147   -4.9615   -2.0671 H        1 ZINC000004199236    0.4400
31     H31     5.5131   -5.2807    1.7825 H        1 ZINC000004199236    0.0700
32     H32     4.7779   -6.8840    2.0444 H        1 ZINC000004199236    0.0800
33     H33     7.0094   -6.9011    0.7872 H        1 ZINC000004199236    0.0700
34     H34     5.6633   -7.7189   -0.0451 H        1 ZINC000004199236    0.0700
35     H35     6.4249   -4.8066   -0.5336 H        1 ZINC000004199236    0.0700
36     H36     7.0289   -6.1588   -1.5217 H        1 ZINC000004199236    0.0800
37     H37     4.7806   -6.7558   -2.2071 H        1 ZINC000004199236    0.1000
38     H38     4.9585   -4.9989   -2.4523 H        1 ZINC000004199236    0.0900
39     H39     1.7633   -3.9841    2.4352 H        1 ZINC000004199236    0.3800
40     H40     0.0503   -2.6289    2.1200 H        1 ZINC000004199236    0.1400
41     H41     0.0211   -0.1667    2.1335 H        1 ZINC000004199236    0.1400
@<TRIPOS>BOND
1     1     2     1
2     1     25    1
3     1     26    1
4     1     27    1
5     2     24    ar
6     2     3     ar
7     3     4     ar
8     3     28    1
9     4     5     ar
10    4     29    1
11    5     6     1
12    5     23    ar
13    6     7     2
14    6     8     2
15    6     9     am
16    9     17    1
17    9     10    1
18    10    11    1
19    10    30    1
20    11    16    1
21    11    12    2
22    12    13    1
23    12    17    1
24    13    14    1
25    13    31    1
26    13    32    1
27    14    15    1
28    14    33    1
29    14    34    1
30    15    16    1
31    15    35    1
32    15    36    1
33    16    37    1
34    16    38    1
35    17    18    1
36    17    19    1
37    18    39    1
38    19    20    1
39    19    21    1
40    19    22    1
41    23    24    ar
42    23    40    1
43    24    41    1
@<TRIPOS>SUBSTRUCTURE
1   ZINC000004199236 1     RESIDUE    1   A     ZIN   1

@<TRIPOS>MOLECULE
ZINC000004199236
40    42    1     0     0
SMALL
USER_CHARGES
@<TRIPOS>ATOM
1      C1     -0.0184    1.5028    0.0103 C.3      1 ZINC000004199236   -0.1200
2      C2      0.0021   -0.0041    0.0020 C.ar     1 ZINC000004199236   -0.0400
3      C3      0.0057   -0.6887   -1.1989 C.ar     1 ZINC000004199236   -0.1500
4      C4      0.0245   -2.0709   -1.2065 C.ar     1 ZINC000004199236   -0.0200
5      C5      0.0400   -2.7685   -0.0132 C.ar     1 ZINC000004199236   -0.6700
6      S6      0.0633   -4.5303   -0.0229 S.o2     1 ZINC000004199236    2.6900
7      O7     -0.4690   -4.9455    1.2275 O.2      1 ZINC000004199236   -0.9200
8      O8     -0.4824   -4.9319   -1.2719 O.2      1 ZINC000004199236   -0.9800
9      N9      1.6514   -4.9995   -0.0340 N.am     1 ZINC000004199236   -0.7900
10     N10     2.4859   -5.1338   -1.1518 N.pl3    1 ZINC000004199236   -0.5400
11     C11     3.7501   -5.5466   -0.7694 C.2      1 ZINC000004199236    0.1200
12     C12     3.8257   -5.7013    0.5412 C.2      1 ZINC000004199236   -0.2300
13     C13     5.0545   -6.1415    1.2959 C.3      1 ZINC000004199236   -0.0300
14     C14     6.0446   -6.7580    0.3006 C.3      1 ZINC000004199236   -0.1200
15     C15     6.2083   -5.8125   -0.8934 C.3      1 ZINC000004199236   -0.1100
16     C16     4.9122   -5.7951   -1.7093 C.3      1 ZINC000004199236   -0.0500
17     C17     2.4813   -5.3559    1.1299 C.3      1 ZINC000004199236    0.4100
18     O18     2.5986   -4.2497    2.0269 O.3      1 ZINC000004199236   -0.8000
19     C19     1.8856   -6.5678    1.8491 C.3      1 ZINC000004199236    0.4000
20     F20     2.7441   -6.9675    2.8788 F        1 ZINC000004199236   -0.1900
21     F21     0.6403   -6.2252    2.3869 F        1 ZINC000004199236   -0.1600
22     F22     1.7275   -7.6187    0.9393 F        1 ZINC000004199236   -0.2100
23     C23     0.0378   -2.0839    1.1877 C.ar     1 ZINC000004199236    0.0200
24     C24     0.0229   -0.7016    1.1953 C.ar     1 ZINC000004199236   -0.1500
25     H25     1.0042    1.8801    0.0026 H        1 ZINC000004199236    0.0700
26     H26    -0.5455    1.8639   -0.8728 H        1 ZINC000004199236    0.0700
27     H27    -0.5286    1.8543    0.9071 H        1 ZINC000004199236    0.0700
28     H28    -0.0064   -0.1436   -2.1312 H        1 ZINC000004199236    0.1200
29     H29     0.0266   -2.6057   -2.1448 H        1 ZINC000004199236    0.1300
30     H30     2.2147   -4.9615   -2.0671 H        1 ZINC000004199236    0.4200
31     H31     5.5131   -5.2807    1.7825 H        1 ZINC000004199236    0.0700
32     H32     4.7779   -6.8840    2.0444 H        1 ZINC000004199236    0.0700
33     H33     7.0094   -6.9011    0.7872 H        1 ZINC000004199236    0.0600
34     H34     5.6633   -7.7189   -0.0451 H        1 ZINC000004199236    0.0600
35     H35     6.4249   -4.8066   -0.5336 H        1 ZINC000004199236    0.0700
36     H36     7.0289   -6.1588   -1.5217 H        1 ZINC000004199236    0.0600
37     H37     4.7806   -6.7558   -2.2071 H        1 ZINC000004199236    0.0700
38     H38     4.9585   -4.9989   -2.4523 H        1 ZINC000004199236    0.0700
39     H39     0.0503   -2.6289    2.1200 H        1 ZINC000004199236    0.1500
40     H40     0.0211   -0.1667    2.1335 H        1 ZINC000004199236    0.1300
@<TRIPOS>BOND
1     1     2     1
2     1     25    1
3     1     26    1
4     1     27    1
5     2     24    ar
6     2     3     ar
7     3     4     ar
8     3     28    1
9     4     5     ar
10    4     29    1
11    5     6     1
12    5     23    ar
13    6     7     2
14    6     8     2
15    6     9     am
16    9     17    1
17    9     10    1
18    10    11    1
19    10    30    1
20    11    16    1
21    11    12    2
22    12    13    1
23    12    17    1
24    13    14    1
25    13    31    1
26    13    32    1
27    14    15    1
28    14    33    1
29    14    34    1
30    15    16    1
31    15    35    1
32    15    36    1
33    16    37    1
34    16    38    1
35    17    18    1
36    17    19    1
37    19    20    1
38    19    21    1
39    19    22    1
40    23    24    ar
41    23    39    1
42    24    40    1
@<TRIPOS>SUBSTRUCTURE
1   ZINC000004199236 1     RESIDUE    1   A     ZIN   1
@<TRIPOS>MOLECULE
ZINC000004885003
47    49    1     0     0
SMALL
USER_CHARGES
@<TRIPOS>ATOM
1      C1     -0.7615   -0.1799    1.5503 C.3      1 ZINC000004885003   -0.1800
2      C2     -0.6078    0.4689    0.1989 C.2      1 ZINC000004885003    0.5100
3      O3     -0.5478    1.6770    0.1094 O.2      1 ZINC000004885003   -0.5100
4      N4     -0.5369   -0.2933   -0.9104 N.am     1 ZINC000004885003   -0.5600
5      C5     -0.7012   -1.7510   -0.8268 C.3      1 ZINC000004885003    0.0900
6      C6      0.3901   -2.3960   -1.6912 C.3      1 ZINC000004885003   -0.1400
7      C7      0.1758   -1.9825   -3.1471 C.3      1 ZINC000004885003   -0.0800
8      C8      0.0430   -0.4864   -3.2563 C.ar     1 ZINC000004885003   -0.1400
9      C9      0.2748    0.1192   -4.4797 C.ar     1 ZINC000004885003    0.0000
10     C10     0.1586    1.4896   -4.6124 C.ar     1 ZINC000004885003   -0.7000
11     S11     0.4570    2.2499   -6.1736 S.o2     1 ZINC000004885003    2.6900
12     O12     0.8078    3.5999   -5.9020 O.2      1 ZINC000004885003   -0.9500
13     O13     1.2941    1.3604   -6.8997 O.2      1 ZINC000004885003   -0.9500
14     N14    -0.9883    2.2957   -6.9808 N.am     1 ZINC000004885003   -1.0500
15     C15    -2.0730    2.9838   -6.4323 C.ar     1 ZINC000004885003    0.1500
16     C16    -1.8643    4.1576   -5.7197 C.ar     1 ZINC000004885003   -0.1600
17     C17    -2.9393    4.8358   -5.1791 C.ar     1 ZINC000004885003   -0.1000
18     C18    -4.2219    4.3475   -5.3466 C.ar     1 ZINC000004885003   -0.1000
19     C19    -5.3923    5.0902   -4.7553 C.3      1 ZINC000004885003   -0.1100
20     C20    -4.4333    3.1792   -6.0560 C.ar     1 ZINC000004885003   -0.1000
21     C21    -3.3636    2.4988   -6.6032 C.ar     1 ZINC000004885003   -0.1000
22     C22    -3.5949    1.2259   -7.3761 C.3      1 ZINC000004885003   -0.1200
23     C23    -0.1918    2.2656   -3.5231 C.ar     1 ZINC000004885003    0.0000
24     C24    -0.4242    1.6695   -2.2995 C.ar     1 ZINC000004885003   -0.1800
25     C25    -0.3111    0.2920   -2.1639 C.ar     1 ZINC000004885003    0.2100
26     H26    -1.8195   -0.2425    1.8051 H        1 ZINC000004885003    0.1000
27     H27    -0.3345   -1.1824    1.5228 H        1 ZINC000004885003    0.0900
28     H28    -0.2418    0.4159    2.3006 H        1 ZINC000004885003    0.1000
29     H29    -0.5926   -2.0760    0.2080 H        1 ZINC000004885003    0.1000
30     H30    -1.6847   -2.0338   -1.2021 H        1 ZINC000004885003    0.0800
31     H31     1.3700   -2.0566   -1.3556 H        1 ZINC000004885003    0.0800
32     H32     0.3289   -3.4810   -1.6070 H        1 ZINC000004885003    0.0900
33     H33     1.0262   -2.3127   -3.7437 H        1 ZINC000004885003    0.0900
34     H34    -0.7321   -2.4528   -3.5247 H        1 ZINC000004885003    0.0800
35     H35     0.5480   -0.4823   -5.3341 H        1 ZINC000004885003    0.1400
36     H36    -1.0815    1.8447   -7.8345 H        1 ZINC000004885003    0.4300
37     H37    -0.8626    4.5394   -5.5882 H        1 ZINC000004885003    0.1600
38     H38    -2.7777    5.7484   -4.6246 H        1 ZINC000004885003    0.1300
39     H39    -5.7680    5.8125   -5.4801 H        1 ZINC000004885003    0.0700
40     H40    -6.1825    4.3826   -4.5044 H        1 ZINC000004885003    0.0700
41     H41    -5.0729    5.6128   -3.8536 H        1 ZINC000004885003    0.0700
42     H42    -5.4365    2.8005   -6.1850 H        1 ZINC000004885003    0.1300
43     H43    -3.7481    1.4628   -8.4289 H        1 ZINC000004885003    0.0700
44     H44    -2.7266    0.5752   -7.2726 H        1 ZINC000004885003    0.0700
45     H45    -4.4773    0.7190   -6.9856 H        1 ZINC000004885003    0.0700
46     H46    -0.2832    3.3365   -3.6290 H        1 ZINC000004885003    0.1400
47     H47    -0.6982    2.2744   -1.4478 H        1 ZINC000004885003    0.1900
@<TRIPOS>BOND
1     1     2     1
2     1     26    1
3     1     27    1
4     1     28    1
5     2     3     2
6     2     4     am
7     4     25    1
8     4     5     1
9     5     6     1
10    5     29    1
11    5     30    1
12    6     7     1
13    6     31    1
14    6     32    1
15    7     8     1
16    7     33    1
17    7     34    1
18    8     25    ar
19    8     9     ar
20    9     10    ar
21    9     35    1
22    10    11    1
23    10    23    ar
24    11    12    2
25    11    13    2
26    11    14    am
27    14    15    1
28    14    36    1
29    15    21    ar
30    15    16    ar
31    16    17    ar
32    16    37    1
33    17    18    ar
34    17    38    1
35    18    19    1
36    18    20    ar
37    19    39    1
38    19    40    1
39    19    41    1
40    20    21    ar
41    20    42    1
42    21    22    1
43    22    43    1
44    22    44    1
45    22    45    1
46    23    24    ar
47    23    46    1
48    24    25    ar
49    24    47    1
@<TRIPOS>SUBSTRUCTURE
1   ZINC000004885003 1     RESIDUE    1   A     ZIN   1

@<TRIPOS>MOLECULE
ZINC000004885003
46    48    1     0     0
SMALL
USER_CHARGES
@<TRIPOS>ATOM
1      C1      1.3161   -0.7418    0.0150 C.3      1 ZINC000004885003   -0.1700
2      C2      0.0021   -0.0041    0.0020 C.2      1 ZINC000004885003    0.5100
3      O3     -0.0145    1.2064    0.0765 O.2      1 ZINC000004885003   -0.5200
4      N4     -1.1546   -0.6893   -0.0924 N.am     1 ZINC000004885003   -0.5500
5      C5     -1.1542   -2.1586   -0.0956 C.3      1 ZINC000004885003    0.1000
6      C6     -2.1083   -2.6252   -1.2029 C.3      1 ZINC000004885003   -0.1300
7      C7     -3.5236   -2.1573   -0.8650 C.3      1 ZINC000004885003   -0.0800
8      C8     -3.5331   -0.6823   -0.5614 C.ar     1 ZINC000004885003   -0.1400
9      C9     -4.7261    0.0140   -0.6575 C.ar     1 ZINC000004885003    0.0000
10     C10    -4.7674    1.3674   -0.3830 C.ar     1 ZINC000004885003   -0.6300
11     S11    -6.2908    2.2438   -0.5097 S.o2     1 ZINC000004885003    2.6000
12     O12    -5.9527    3.6074   -0.7229 O.2      1 ZINC000004885003   -1.0300
13     O13    -7.1100    1.4979   -1.3994 O.2      1 ZINC000004885003   -1.0300
14     N14    -7.0235    2.1701    0.9736 N.pl3    1 ZINC000004885003   -1.0900
15     C15    -8.2615    2.7856    1.1723 C.ar     1 ZINC000004885003    0.2800
16     C16    -8.8820    3.4549    0.1254 C.ar     1 ZINC000004885003   -0.2600
17     C17   -10.1065    4.0621    0.3252 C.ar     1 ZINC000004885003   -0.0700
18     C18   -10.7144    4.0041    1.5657 C.ar     1 ZINC000004885003   -0.2000
19     C19   -12.0504    4.6677    1.7799 C.3      1 ZINC000004885003   -0.0900
20     C20   -10.0994    3.3380    2.6102 C.ar     1 ZINC000004885003   -0.0800
21     C21    -8.8776    2.7248    2.4160 C.ar     1 ZINC000004885003   -0.1500
22     C22    -8.2082    1.9993    3.5548 C.3      1 ZINC000004885003   -0.0800
23     C23    -3.6164    2.0357   -0.0086 C.ar     1 ZINC000004885003   -0.0100
24     C24    -2.4226    1.3488    0.0892 C.ar     1 ZINC000004885003   -0.1800
25     C25    -2.3786   -0.0122   -0.1832 C.ar     1 ZINC000004885003    0.1800
26     H26     2.1360   -0.0237    0.0072 H        1 ZINC000004885003    0.1000
27     H27     1.3792   -1.3557    0.9136 H        1 ZINC000004885003    0.0900
28     H28     1.3833   -1.3797   -0.8662 H        1 ZINC000004885003    0.0900
29     H29    -0.1480   -2.5270   -0.2958 H        1 ZINC000004885003    0.0900
30     H30    -1.4989   -2.5300    0.8694 H        1 ZINC000004885003    0.0800
31     H31    -1.7994   -2.1958   -2.1560 H        1 ZINC000004885003    0.0700
32     H32    -2.0889   -3.7132   -1.2671 H        1 ZINC000004885003    0.0900
33     H33    -4.1796   -2.3542   -1.7130 H        1 ZINC000004885003    0.0800
34     H34    -3.8860   -2.7059    0.0044 H        1 ZINC000004885003    0.0800
35     H35    -5.6283   -0.5032   -0.9488 H        1 ZINC000004885003    0.1400
36     H36    -8.4075    3.5009   -0.8437 H        1 ZINC000004885003    0.1000
37     H37   -10.5894    4.5830   -0.4883 H        1 ZINC000004885003    0.1000
38     H38   -12.8480    3.9588    1.5579 H        1 ZINC000004885003    0.0500
39     H39   -12.1321    4.9935    2.8169 H        1 ZINC000004885003    0.0500
40     H40   -12.1373    5.5308    1.1200 H        1 ZINC000004885003    0.0500
41     H41   -10.5770    3.2946    3.5779 H        1 ZINC000004885003    0.1000
42     H42    -8.5256    0.9565    3.5578 H        1 ZINC000004885003    0.0400
43     H43    -7.1264    2.0494    3.4317 H        1 ZINC000004885003    0.0700
44     H44    -8.4886    2.4671    4.4985 H        1 ZINC000004885003    0.0400
45     H45    -3.6509    3.0934    0.2066 H        1 ZINC000004885003    0.1400
46     H46    -1.5227    1.8695    0.3818 H        1 ZINC000004885003    0.1800
@<TRIPOS>BOND
1     1     2     1
2     1     26    1
3     1     27    1
4     1     28    1
5     2     3     2
6     2     4     am
7     4     25    1
8     4     5     1
9     5     6     1
10    5     29    1
11    5     30    1
12    6     7     1
13    6     31    1
14    6     32    1
15    7     8     1
16    7     33    1
17    7     34    1
18    8     25    ar
19    8     9     ar
20    9     10    ar
21    9     35    1
22    10    11    1
23    10    23    ar
24    11    12    2
25    11    13    2
26    11    14    1
27    14    15    1
28    15    21    ar
29    15    16    ar
30    16    17    ar
31    16    36    1
32    17    18    ar
33    17    37    1
34    18    19    1
35    18    20    ar
36    19    38    1
37    19    39    1
38    19    40    1
39    20    21    ar
40    20    41    1
41    21    22    1
42    22    42    1
43    22    43    1
44    22    44    1
45    23    24    ar
46    23    45    1
47    24    25    ar
48    24    46    1
@<TRIPOS>SUBSTRUCTURE
1   ZINC000004885003 1     RESIDUE    1   A     ZIN   1
@<TRIPOS>MOLECULE
ZINC000089495123
25    26    1     0     0
SMALL
USER_CHARGES
@<TRIPOS>ATOM
1      C1     -0.0184    1.5028    0.0103 C.3      1 ZINC000089495123   -0.0200
2      C2      0.0021   -0.0041    0.0020 C.2      1 ZINC000089495123   -0.1700
3      C3     -1.0741   -0.8328    0.0023 C.2      1 ZINC000089495123    0.1600
4      N4     -2.4373   -0.4841    0.0104 N.pl3    1 ZINC000089495123   -1.0600
5      S5     -3.5949   -1.6683    0.0091 S.o2     1 ZINC000089495123    2.6200
6      O6     -3.4917   -2.3290   -1.2447 O.2      1 ZINC000089495123   -1.0300
7      O7     -3.4805   -2.3426    1.2547 O.2      1 ZINC000089495123   -1.0300
8      C8     -5.1630   -0.8648    0.0205 C.2      1 ZINC000089495123   -0.6400
9      C9     -5.5780   -0.1163    1.0433 C.2      1 ZINC000089495123   -0.0200
10     C10    -4.7923    0.1467    2.3021 C.3      1 ZINC000089495123   -0.1200
11     S11    -7.1818    0.5180    0.6983 S.3      1 ZINC000089495123    0.1500
12     C12    -7.1997   -0.2931   -0.8622 C.2      1 ZINC000089495123   -0.2300
13     Br13   -8.6193   -0.2256   -2.1097 Br       1 ZINC000089495123    0.0000
14     C14    -6.0552   -0.9581   -1.0341 C.2      1 ZINC000089495123   -0.0100
15     C15    -0.5041   -2.1311   -0.0078 C.2      1 ZINC000089495123   -0.1100
16     N16     0.7872   -1.9655   -0.0129 N.2      1 ZINC000089495123   -0.3700
17     O17     1.0884   -0.7946   -0.0131 O.3      1 ZINC000089495123    0.0900
18     H18     1.0042    1.8801    0.0026 H        1 ZINC000089495123    0.0500
19     H19    -0.5455    1.8639   -0.8728 H        1 ZINC000089495123    0.0700
20     H20    -0.5286    1.8543    0.9071 H        1 ZINC000089495123    0.0700
21     H21    -4.1816    1.0398    2.1693 H        1 ZINC000089495123    0.1000
22     H22    -5.4795    0.2971    3.1347 H        1 ZINC000089495123    0.0800
23     H23    -4.1474   -0.7064    2.5128 H        1 ZINC000089495123    0.1100
24     H24    -5.8445   -1.5318   -1.9245 H        1 ZINC000089495123    0.1600
25     H25    -1.0359   -3.0711   -0.0104 H        1 ZINC000089495123    0.1700
@<TRIPOS>BOND
1     1     2     1
2     1     18    1
3     1     19    1
4     1     20    1
5     2     17    1
6     2     3     2
7     3     4     1
8     3     15    1
9     4     5     1
10    5     6     2
11    5     7     2
12    5     8     1
13    8     14    1
14    8     9     2
15    9     10    1
16    9     11    1
17    10    21    1
18    10    22    1
19    10    23    1
20    11    12    1
21    12    13    1
22    12    14    2
23    14    24    1
24    15    16    2
25    15    25    1
26    16    17    1
@<TRIPOS>SUBSTRUCTURE
1   ZINC000089495123 1     RESIDUE    1   A     ZIN   1

@<TRIPOS>MOLECULE
ZINC000089495123
26    27    1     0     0
SMALL
USER_CHARGES
@<TRIPOS>ATOM
1      C1     -0.4270    1.8953    0.2520 C.3      1 ZINC000089495123   -0.0800
2      C2     -0.2005    0.4056    0.2257 C.2      1 ZINC000089495123   -0.0400
3      C3     -1.1497   -0.5604    0.1211 C.2      1 ZINC000089495123    0.0300
4      N4     -2.5435   -0.3990    0.0145 N.am     1 ZINC000089495123   -1.0200
5      S5     -3.5607   -1.4924    0.7299 S.o2     1 ZINC000089495123    2.7100
6      O6     -4.8807   -1.0112    0.5173 O.2      1 ZINC000089495123   -0.9300
7      O7     -3.1256   -2.7788    0.3114 O.2      1 ZINC000089495123   -0.9400
8      C8     -3.2754   -1.4114    2.4668 C.2      1 ZINC000089495123   -0.7000
9      C9     -3.5555   -0.3263    3.1898 C.2      1 ZINC000089495123   -0.0400
10     C10    -4.1402    0.9521    2.6468 C.3      1 ZINC000089495123   -0.1200
11     S11    -3.1392   -0.6154    4.8740 S.3      1 ZINC000089495123    0.2200
12     C12    -2.5916   -2.2423    4.4907 C.2      1 ZINC000089495123   -0.2200
13     Br13   -1.8956   -3.4808    5.7388 Br       1 ZINC000089495123    0.0300
14     C14    -2.7488   -2.4714    3.1852 C.2      1 ZINC000089495123   -0.0200
15     C15    -0.4091   -1.7693    0.1437 C.2      1 ZINC000089495123   -0.0200
16     N16     0.8433   -1.4311    0.2536 N.2      1 ZINC000089495123   -0.3400
17     O17     0.9809   -0.2306    0.2952 O.3      1 ZINC000089495123    0.1100
18     H18     0.5314    2.4070    0.3387 H        1 ZINC000089495123    0.0900
19     H19    -0.9217    2.2039   -0.6689 H        1 ZINC000089495123    0.0900
20     H20    -1.0546    2.1523    1.1053 H        1 ZINC000089495123    0.0900
21     H21    -2.9084    0.3528   -0.4780 H        1 ZINC000089495123    0.4300
22     H22    -5.2256    0.8639    2.5997 H        1 ZINC000089495123    0.1100
23     H23    -3.8711    1.7814    3.3010 H        1 ZINC000089495123    0.0900
24     H24    -3.7468    1.1356    1.6470 H        1 ZINC000089495123    0.0800
25     H25    -2.4783   -3.4092    2.7230 H        1 ZINC000089495123    0.1700
26     H26    -0.8054   -2.7721    0.0823 H        1 ZINC000089495123    0.2100
@<TRIPOS>BOND
1     1     2     1
2     1     18    1
3     1     19    1
4     1     20    1
5     2     17    1
6     2     3     2
7     3     4     1
8     3     15    1
9     4     5     am
10    4     21    1
11    5     6     2
12    5     7     2
13    5     8     1
14    8     14    1
15    8     9     2
16    9     10    1
17    9     11    1
18    10    22    1
19    10    23    1
20    10    24    1
21    11    12    1
22    12    13    1
23    12    14    2
24    14    25    1
25    15    16    2
26    15    26    1
27    16    17    1
@<TRIPOS>SUBSTRUCTURE
1   ZINC000089495123 1     RESIDUE    1   A     ZIN   1
@<TRIPOS>MOLECULE
ZINC000095390027
48    50    1     0     0
SMALL
USER_CHARGES
@<TRIPOS>ATOM
1      C1     -3.4519    0.6222   -3.6524 C.3      1 ZINC000095390027   -0.1400
2      C2     -3.6636   -0.8163   -3.1762 C.3      1 ZINC000095390027    0.0900
3      H3     -4.7291   -1.0461   -3.1745 H        1 ZINC000095390027    0.0700
4      C4     -3.1046   -0.9733   -1.7596 C.3      1 ZINC000095390027    0.0200
5      N5     -3.2409   -2.3748   -1.3371 N.3      1 ZINC000095390027   -0.5300
6      C6     -2.7670   -2.5576    0.0413 C.3      1 ZINC000095390027    0.0400
7      C7     -2.8360   -4.0404    0.4120 C.3      1 ZINC000095390027    0.1400
8      H8     -2.2567   -4.6277   -0.3004 H        1 ZINC000095390027    0.0700
9      C9     -4.3049   -4.5138    0.4108 C.3      1 ZINC000095390027   -0.1100
10     C10    -4.3595   -5.4802    1.6235 C.3      1 ZINC000095390027   -0.1400
11     C11    -3.3911   -4.7891    2.6157 C.3      1 ZINC000095390027    0.1100
12     N12    -2.3104   -4.2413    1.7702 N.am     1 ZINC000095390027   -0.6100
13     C13    -1.0548   -3.9702    2.1782 C.2      1 ZINC000095390027    0.6300
14     O14    -0.2706   -3.4351    1.4181 O.2      1 ZINC000095390027   -0.5500
15     C15    -0.6325   -4.3219    3.5445 C.ar     1 ZINC000095390027   -0.3200
16     C16    -0.0624   -5.5766    3.8056 C.ar     1 ZINC000095390027    0.3400
17     O17     0.1024   -6.4720    2.7999 O.3      1 ZINC000095390027   -0.6900
18     C18     0.3321   -5.8978    5.0938 C.ar     1 ZINC000095390027   -0.3000
19     C19     0.1645   -4.9841    6.1201 C.ar     1 ZINC000095390027    0.1700
20     F20     0.5515   -5.3042    7.3742 F        1 ZINC000095390027   -0.1500
21     C21    -0.3983   -3.7415    5.8681 C.ar     1 ZINC000095390027   -0.3300
22     C22    -0.7924   -3.4033    4.5894 C.ar     1 ZINC000095390027    0.2000
23     F23    -1.3396   -2.1919    4.3479 F        1 ZINC000095390027   -0.1500
24     C24    -2.5293   -3.2692   -2.2618 C.3      1 ZINC000095390027    0.0200
25     C25    -3.0941   -3.0891   -3.6733 C.3      1 ZINC000095390027    0.0900
26     H26    -4.1428   -3.3858   -3.6863 H        1 ZINC000095390027    0.0700
27     C27    -2.3050   -3.9588   -4.6541 C.3      1 ZINC000095390027   -0.1500
28     O28    -2.9824   -1.7154   -4.0553 O.3      1 ZINC000095390027   -0.3800
29     H29    -3.8487    0.7330   -4.6616 H        1 ZINC000095390027    0.0600
30     H30    -3.9700    1.3071   -2.9811 H        1 ZINC000095390027    0.0700
31     H31    -2.3863    0.8514   -3.6538 H        1 ZINC000095390027    0.0600
32     H32    -2.0518   -0.6911   -1.7504 H        1 ZINC000095390027    0.0400
33     H33    -3.6601   -0.3313   -1.0759 H        1 ZINC000095390027    0.0800
34     H34    -1.7366   -2.2109    0.1203 H        1 ZINC000095390027    0.0600
35     H35    -3.3966   -1.9834    0.7211 H        1 ZINC000095390027    0.0800
36     H36    -4.9815   -3.6720    0.5577 H        1 ZINC000095390027    0.0800
37     H37    -4.5392   -5.0415   -0.5137 H        1 ZINC000095390027    0.0800
38     H38    -5.3674   -5.5343    2.0348 H        1 ZINC000095390027    0.0800
39     H39    -3.9971   -6.4711    1.3500 H        1 ZINC000095390027    0.0800
40     H40    -3.9021   -3.9865    3.1476 H        1 ZINC000095390027    0.0600
41     H41    -2.9879   -5.5160    3.3207 H        1 ZINC000095390027    0.0800
42     H42     0.7710   -6.8632    5.2981 H        1 ZINC000095390027    0.1200
43     H43    -0.5253   -3.0349    6.6749 H        1 ZINC000095390027    0.1200
44     H44    -1.4673   -3.0237   -2.2606 H        1 ZINC000095390027    0.0500
45     H45    -2.6648   -4.3032   -1.9446 H        1 ZINC000095390027    0.0900
46     H46    -2.3886   -5.0052   -4.3603 H        1 ZINC000095390027    0.0700
47     H47    -2.7075   -3.8302   -5.6588 H        1 ZINC000095390027    0.0600
48     H48    -1.2566   -3.6607   -4.6418 H        1 ZINC000095390027    0.0600
@<TRIPOS>BOND
1     1     2     1
2     1     29    1
3     1     30    1
4     1     31    1
5     2     3     1
6     2     28    1
7     2     4     1
8     4     5     1
9     4     32    1
10    4     33    1
11    5     6     1
12    5     24    1
13    6     7     1
14    6     34    1
15    6     35    1
16    7     8     1
17    7     12    1
18    7     9     1
19    9     10    1
20    9     36    1
21    9     37    1
22    10    11    1
23    10    38    1
24    10    39    1
25    11    12    1
26    11    40    1
27    11    41    1
28    12    13    am
29    13    14    2
30    13    15    1
31    15    22    ar
32    15    16    ar
33    16    17    1
34    16    18    ar
35    18    19    ar
36    18    42    1
37    19    20    1
38    19    21    ar
39    21    22    ar
40    21    43    1
41    22    23    1
42    24    25    1
43    24    44    1
44    24    45    1
45    25    26    1
46    25    27    1
47    25    28    1
48    27    46    1
49    27    47    1
50    27    48    1
@<TRIPOS>SUBSTRUCTURE
1   ZINC000095390027 1     RESIDUE    1   A     ZIN   1

@<TRIPOS>MOLECULE
ZINC000095390027
49    51    1     0     0
SMALL
USER_CHARGES
@<TRIPOS>ATOM
1      C1     -4.0689    1.5704   -2.3073 C.3      1 ZINC000095390027   -0.1500
2      C2     -4.0757    0.0411   -2.3544 C.3      1 ZINC000095390027    0.0700
3      H3     -5.1025   -0.3160   -2.4339 H        1 ZINC000095390027    0.0800
4      C4     -3.4394   -0.5125   -1.0771 C.3      1 ZINC000095390027   -0.0400
5      N5     -3.3947   -1.9794   -1.1509 N.4      1 ZINC000095390027   -0.3800
6      H6     -4.3322   -2.3403   -1.2447 H        1 ZINC000095390027    0.4200
7      C7     -2.7847   -2.5131    0.0743 C.3      1 ZINC000095390027   -0.0300
8      C8     -2.8742   -4.0405    0.0650 C.3      1 ZINC000095390027    0.1200
9      H9     -2.4252   -4.4324   -0.8477 H        1 ZINC000095390027    0.0900
10     C10    -4.3508   -4.4802    0.1542 C.3      1 ZINC000095390027   -0.1500
11     C11    -4.2875   -5.7245    1.0790 C.3      1 ZINC000095390027   -0.1300
12     C12    -3.1620   -5.3225    2.0646 C.3      1 ZINC000095390027    0.1000
13     N13    -2.1802   -4.5892    1.2392 N.am     1 ZINC000095390027   -0.6000
14     C14    -0.8695   -4.4468    1.5188 C.2      1 ZINC000095390027    0.6400
15     O15    -0.1703   -3.7441    0.8141 O.2      1 ZINC000095390027   -0.5500
16     C16    -0.2839   -5.1420    2.6775 C.ar     1 ZINC000095390027   -0.3400
17     C17     0.1646   -6.4652    2.5533 C.ar     1 ZINC000095390027    0.3400
18     O18     0.0608   -7.1105    1.3646 O.3      1 ZINC000095390027   -0.6900
19     C19     0.7143   -7.1104    3.6487 C.ar     1 ZINC000095390027   -0.2900
20     C20     0.8207   -6.4519    4.8617 C.ar     1 ZINC000095390027    0.1800
21     F21     1.3580   -7.0874    5.9260 F        1 ZINC000095390027   -0.1500
22     C22     0.3794   -5.1432    4.9906 C.ar     1 ZINC000095390027   -0.3200
23     C23    -0.1664   -4.4838    3.9079 C.ar     1 ZINC000095390027    0.2000
24     F24    -0.5947   -3.2091    4.0373 F        1 ZINC000095390027   -0.1500
25     C25    -2.5944   -2.3860   -2.3142 C.3      1 ZINC000095390027   -0.0500
26     C26    -3.2323   -1.8289   -3.5892 C.3      1 ZINC000095390027    0.0700
27     H27    -4.2299   -2.2507   -3.7114 H        1 ZINC000095390027    0.0800
28     C28    -2.3692   -2.2003   -4.7967 C.3      1 ZINC000095390027   -0.1500
29     O29    -3.3257   -0.4052   -3.4876 O.3      1 ZINC000095390027   -0.3600
30     H30    -4.5206    1.9640   -3.2179 H        1 ZINC000095390027    0.0800
31     H31    -4.6392    1.9098   -1.4427 H        1 ZINC000095390027    0.0900
32     H32    -3.0419    1.9268   -2.2278 H        1 ZINC000095390027    0.0800
33     H33    -2.4265   -0.1224   -0.9768 H        1 ZINC000095390027    0.1400
34     H34    -4.0330   -0.2098   -0.2144 H        1 ZINC000095390027    0.1400
35     H35    -1.7385   -2.2107    0.1208 H        1 ZINC000095390027    0.1500
36     H36    -3.3145   -2.1234    0.9435 H        1 ZINC000095390027    0.1300
37     H37    -4.9602   -3.6962    0.6038 H        1 ZINC000095390027    0.0800
38     H38    -4.7329   -4.7504   -0.8302 H        1 ZINC000095390027    0.0900
39     H39    -5.2321   -5.8702    1.6030 H        1 ZINC000095390027    0.0900
40     H40    -4.0134   -6.6164    0.5156 H        1 ZINC000095390027    0.0900
41     H41    -3.5573   -4.6772    2.8490 H        1 ZINC000095390027    0.0700
42     H42    -2.7026   -6.2107    2.4985 H        1 ZINC000095390027    0.0900
43     H43     1.0602   -8.1293    3.5565 H        1 ZINC000095390027    0.1200
44     H44     0.4664   -4.6372    5.9408 H        1 ZINC000095390027    0.1300
45     H45    -1.5818   -1.9952   -2.2135 H        1 ZINC000095390027    0.1400
46     H46    -2.5606   -3.4741   -2.3699 H        1 ZINC000095390027    0.1400
47     H47    -2.3683   -3.2829   -4.9235 H        1 ZINC000095390027    0.0900
48     H48    -2.7754   -1.7300   -5.6922 H        1 ZINC000095390027    0.0900
49     H49    -1.3489   -1.8527   -4.6347 H        1 ZINC000095390027    0.0800
@<TRIPOS>BOND
1     1     2     1
2     1     30    1
3     1     31    1
4     1     32    1
5     2     3     1
6     2     29    1
7     2     4     1
8     4     5     1
9     4     33    1
10    4     34    1
11    5     6     1
12    5     7     1
13    5     25    1
14    7     8     1
15    7     35    1
16    7     36    1
17    8     9     1
18    8     13    1
19    8     10    1
20    10    11    1
21    10    37    1
22    10    38    1
23    11    12    1
24    11    39    1
25    11    40    1
26    12    13    1
27    12    41    1
28    12    42    1
29    13    14    am
30    14    15    2
31    14    16    1
32    16    23    ar
33    16    17    ar
34    17    18    1
35    17    19    ar
36    19    20    ar
37    19    43    1
38    20    21    1
39    20    22    ar
40    22    23    ar
41    22    44    1
42    23    24    1
43    25    26    1
44    25    45    1
45    25    46    1
46    26    27    1
47    26    28    1
48    26    29    1
49    28    47    1
50    28    48    1
51    28    49    1
@<TRIPOS>SUBSTRUCTURE
1   ZINC000095390027 1     RESIDUE    1   A     ZIN   1

@<TRIPOS>MOLECULE
ZINC000095390027
49    51    1     0     0
SMALL
USER_CHARGES
@<TRIPOS>ATOM
1      C1     -0.7663   -4.4279    0.7868 C.3      1 ZINC000095390027   -0.2000
2      C2     -1.7664   -4.0272   -0.3010 C.3      1 ZINC000095390027    0.0800
3      H3     -1.2489   -4.1430   -1.2741 H        1 ZINC000095390027    0.1400
4      C4     -2.1362   -2.5549   -0.1550 C.3      1 ZINC000095390027   -0.0400
5      N5     -3.1066   -2.3728    0.9302 N.4      1 ZINC000095390027   -0.3800
6      H6     -2.7207   -2.6925    1.8026 H        1 ZINC000095390027    0.4200
7      C7     -3.4326   -0.9421    1.0513 C.3      1 ZINC000095390027   -0.0300
8      C8     -4.2734   -0.7153    2.3093 C.3      1 ZINC000095390027    0.1200
9      H9     -3.8294   -1.2449    3.1522 H        1 ZINC000095390027    0.0900
10     C10    -5.7142   -1.2161    2.0749 C.3      1 ZINC000095390027   -0.1500
11     C11    -6.5750   -0.1531    2.8072 C.3      1 ZINC000095390027   -0.1300
12     C12    -5.7661    1.1405    2.5393 C.3      1 ZINC000095390027    0.1000
13     N13    -4.3506    0.7224    2.6066 N.am     1 ZINC000095390027   -0.6100
14     C14    -3.3068    1.5263    2.8911 C.2      1 ZINC000095390027    0.6400
15     O15    -2.1720    1.0925    2.8340 O.2      1 ZINC000095390027   -0.5500
16     C16    -3.5404    2.9298    3.2711 C.ar     1 ZINC000095390027   -0.3400
17     C17    -3.7127    3.2761    4.6194 C.ar     1 ZINC000095390027    0.3400
18     O18    -3.6649    2.3191    5.5796 O.3      1 ZINC000095390027   -0.6900
19     C19    -3.9314    4.5990    4.9668 C.ar     1 ZINC000095390027   -0.2900
20     C20    -3.9799    5.5758    3.9871 C.ar     1 ZINC000095390027    0.1800
21     F21    -4.1936    6.8641    4.3332 F        1 ZINC000095390027   -0.1500
22     C22    -3.8098    5.2395    2.6522 C.ar     1 ZINC000095390027   -0.3200
23     C23    -3.5861    3.9270    2.2889 C.ar     1 ZINC000095390027    0.2000
24     F24    -3.4204    3.6035    0.9877 F        1 ZINC000095390027   -0.1500
25     C25    -4.3280   -3.1188    0.6077 C.3      1 ZINC000095390027   -0.0700
26     C26    -4.0280   -4.6095    0.4893 C.3      1 ZINC000095390027    0.0800
27     H27    -4.9033   -5.0854    0.0042 H        1 ZINC000095390027    0.1400
28     C28    -3.8964   -5.2312    1.8821 C.3      1 ZINC000095390027   -0.2000
29     O29    -2.8918   -4.8772   -0.3021 O.3      1 ZINC000095390027   -0.3600
30     H30    -0.4588   -5.4625    0.6343 H        1 ZINC000095390027    0.0900
31     H31     0.1070   -3.7778    0.7347 H        1 ZINC000095390027    0.0800
32     H32    -1.2352   -4.3289    1.7658 H        1 ZINC000095390027    0.0600
33     H33    -1.2375   -1.9730    0.0639 H        1 ZINC000095390027    0.1400
34     H34    -2.5688   -2.1925   -1.0906 H        1 ZINC000095390027    0.1400
35     H35    -2.5111   -0.3641    1.1211 H        1 ZINC000095390027    0.1500
36     H36    -3.9965   -0.6225    0.1749 H        1 ZINC000095390027    0.1300
37     H37    -5.9476   -1.2347    1.0103 H        1 ZINC000095390027    0.0900
38     H38    -5.8572   -2.2011    2.5194 H        1 ZINC000095390027    0.0900
39     H39    -7.5714   -0.0885    2.3699 H        1 ZINC000095390027    0.0900
40     H40    -6.6317   -0.3644    3.8750 H        1 ZINC000095390027    0.0900
41     H41    -5.9995    1.5360    1.5508 H        1 ZINC000095390027    0.0700
42     H42    -5.9770    1.8856    3.3065 H        1 ZINC000095390027    0.0900
43     H43    -4.0648    4.8688    6.0040 H        1 ZINC000095390027    0.1200
44     H44    -3.8491    6.0082    1.8945 H        1 ZINC000095390027    0.1300
45     H45    -5.0679   -2.9569    1.3953 H        1 ZINC000095390027    0.1600
46     H46    -4.7360   -2.7523   -0.3373 H        1 ZINC000095390027    0.1400
47     H47    -4.7964   -5.0214    2.4601 H        1 ZINC000095390027    0.0800
48     H48    -3.7681   -6.3095    1.7881 H        1 ZINC000095390027    0.0900
49     H49    -3.0310   -4.8053    2.3899 H        1 ZINC000095390027    0.0600
@<TRIPOS>BOND
1     1     2     1
2     1     30    1
3     1     31    1
4     1     32    1
5     2     3     1
6     2     29    1
7     2     4     1
8     4     5     1
9     4     33    1
10    4     34    1
11    5     6     1
12    5     7     1
13    5     25    1
14    7     8     1
15    7     35    1
16    7     36    1
17    8     9     1
18    8     13    1
19    8     10    1
20    10    11    1
21    10    37    1
22    10    38    1
23    11    12    1
24    11    39    1
25    11    40    1
26    12    13    1
27    12    41    1
28    12    42    1
29    13    14    am
30    14    15    2
31    14    16    1
32    16    23    ar
33    16    17    ar
34    17    18    1
35    17    19    ar
36    19    20    ar
37    19    43    1
38    20    21    1
39    20    22    ar
40    22    23    ar
41    22    44    1
42    23    24    1
43    25    26    1
44    25    45    1
45    25    46    1
46    26    27    1
47    26    28    1
48    26    29    1
49    28    47    1
50    28    48    1
51    28    49    1
@<TRIPOS>SUBSTRUCTURE
1   ZINC000095390027 1     RESIDUE    1   A     ZIN   1

@<TRIPOS>MOLECULE
ZINC000095390027
50    52    1     0     0
SMALL
USER_CHARGES
@<TRIPOS>ATOM
1      C1     -4.1317    1.5679   -2.2767 C.3      1 ZINC000095390027   -0.1500
2      C2     -4.1379    0.0386   -2.3231 C.3      1 ZINC000095390027    0.0700
3      H3     -5.1658   -0.3197   -2.3774 H        1 ZINC000095390027    0.0900
4      C4     -3.4699   -0.5138   -1.0615 C.3      1 ZINC000095390027   -0.0400
5      N5     -3.4252   -1.9806   -1.1358 N.4      1 ZINC000095390027   -0.3800
6      H6     -4.3643   -2.3427   -1.2067 H        1 ZINC000095390027    0.4200
7      C7     -2.7848   -2.5132    0.0742 C.3      1 ZINC000095390027   -0.0300
8      C8     -2.8727   -4.0406    0.0676 C.3      1 ZINC000095390027    0.1200
9      H9     -2.4456   -4.4323   -0.8556 H        1 ZINC000095390027    0.1000
10     C10    -4.3461   -4.4821    0.1930 C.3      1 ZINC000095390027   -0.1500
11     C11    -4.2587   -5.7260    1.1164 C.3      1 ZINC000095390027   -0.1300
12     C12    -3.1100   -5.3223    2.0741 C.3      1 ZINC000095390027    0.0900
13     N13    -2.1496   -4.5881    1.2247 N.am     1 ZINC000095390027   -0.6000
14     C14    -0.8326   -4.4440    1.4722 C.2      1 ZINC000095390027    0.6000
15     O15    -0.1516   -3.7407    0.7504 O.2      1 ZINC000095390027   -0.5200
16     C16    -0.2181   -5.1381    2.6165 C.ar     1 ZINC000095390027   -0.2200
17     C17     0.2288   -6.4608    2.4818 C.ar     1 ZINC000095390027    0.2100
18     O18     0.0967   -7.1067    1.2962 O.3      1 ZINC000095390027   -0.4800
19     C19     0.8059   -7.1049    3.5638 C.ar     1 ZINC000095390027   -0.1900
20     C20     0.9412   -6.4458    4.7735 C.ar     1 ZINC000095390027    0.1800
21     F21     1.5050   -7.0803    5.8246 F        1 ZINC000095390027   -0.1100
22     C22     0.5016   -5.1376    4.9127 C.ar     1 ZINC000095390027   -0.2000
23     C23    -0.0713   -4.4793    3.8435 C.ar     1 ZINC000095390027    0.1900
24     F24    -0.4978   -3.2050    3.9828 F        1 ZINC000095390027   -0.1200
25     C25    -2.6530   -2.3867   -2.3182 C.3      1 ZINC000095390027   -0.0500
26     C26    -3.3226   -1.8308   -3.5775 C.3      1 ZINC000095390027    0.0700
27     H27    -4.3224   -2.2538   -3.6751 H        1 ZINC000095390027    0.0900
28     C28    -2.4887   -2.2017   -4.8056 C.3      1 ZINC000095390027   -0.1500
29     O29    -3.4152   -0.4072   -3.4741 O.3      1 ZINC000095390027   -0.3500
30     H30    -4.6061    1.9606   -3.1761 H        1 ZINC000095390027    0.0900
31     H31    -4.6812    1.9070   -1.3985 H        1 ZINC000095390027    0.0900
32     H32    -3.1035    1.9256   -2.2224 H        1 ZINC000095390027    0.0800
33     H33    -2.4553   -0.1224   -0.9861 H        1 ZINC000095390027    0.1400
34     H34    -4.0426   -0.2114   -0.1847 H        1 ZINC000095390027    0.1400
35     H35    -1.7382   -2.2095    0.0951 H        1 ZINC000095390027    0.1500
36     H36    -3.2937   -2.1238    0.9560 H        1 ZINC000095390027    0.1400
37     H37    -4.9453   -3.6987    0.6571 H        1 ZINC000095390027    0.0900
38     H38    -4.7518   -4.7531   -0.7817 H        1 ZINC000095390027    0.1000
39     H39    -5.1901   -5.8727    1.6634 H        1 ZINC000095390027    0.1000
40     H40    -3.9974   -6.6178    0.5468 H        1 ZINC000095390027    0.0900
41     H41    -3.4868   -4.6771    2.8677 H        1 ZINC000095390027    0.0800
42     H42    -2.6391   -6.2098    2.4969 H        1 ZINC000095390027    0.0900
43     H43     0.8535   -7.0001    0.7038 H        1 ZINC000095390027    0.4100
44     H44     1.1506   -8.1235    3.4634 H        1 ZINC000095390027    0.1600
45     H45     0.6112   -4.6312    5.8603 H        1 ZINC000095390027    0.1600
46     H46    -1.6388   -1.9947   -2.2424 H        1 ZINC000095390027    0.1400
47     H47    -2.6194   -3.4747   -2.3744 H        1 ZINC000095390027    0.1400
48     H48    -2.4897   -3.2843   -4.9319 H        1 ZINC000095390027    0.0900
49     H49    -2.9173   -1.7321   -5.6910 H        1 ZINC000095390027    0.0900
50     H50    -1.4652   -1.8527   -4.6686 H        1 ZINC000095390027    0.0800
@<TRIPOS>BOND
1     1     2     1
2     1     30    1
3     1     31    1
4     1     32    1
5     2     3     1
6     2     29    1
7     2     4     1
8     4     5     1
9     4     33    1
10    4     34    1
11    5     6     1
12    5     7     1
13    5     25    1
14    7     8     1
15    7     35    1
16    7     36    1
17    8     9     1
18    8     13    1
19    8     10    1
20    10    11    1
21    10    37    1
22    10    38    1
23    11    12    1
24    11    39    1
25    11    40    1
26    12    13    1
27    12    41    1
28    12    42    1
29    13    14    am
30    14    15    2
31    14    16    1
32    16    23    ar
33    16    17    ar
34    17    18    1
35    17    19    ar
36    18    43    1
37    19    20    ar
38    19    44    1
39    20    21    1
40    20    22    ar
41    22    23    ar
42    22    45    1
43    23    24    1
44    25    26    1
45    25    46    1
46    25    47    1
47    26    27    1
48    26    28    1
49    26    29    1
50    28    48    1
51    28    49    1
52    28    50    1
@<TRIPOS>SUBSTRUCTURE
1   ZINC000095390027 1     RESIDUE    1   A     ZIN   1

@<TRIPOS>MOLECULE
ZINC000095390027
50    52    1     0     0
SMALL
USER_CHARGES
@<TRIPOS>ATOM
1      C1     -0.8390   -4.4802    0.7542 C.3      1 ZINC000095390027   -0.2000
2      C2     -1.8269   -4.0457   -0.3316 C.3      1 ZINC000095390027    0.0800
3      H3     -1.3090   -4.1610   -1.3045 H        1 ZINC000095390027    0.1400
4      C4     -2.1658   -2.5676   -0.1694 C.3      1 ZINC000095390027   -0.0400
5      N5     -3.1354   -2.3775    0.9150 N.4      1 ZINC000095390027   -0.3800
6      H6     -2.7591   -2.7155    1.7847 H        1 ZINC000095390027    0.4200
7      C7     -3.4313   -0.9417    1.0519 C.3      1 ZINC000095390027   -0.0300
8      C8     -4.2711   -0.7118    2.3100 C.3      1 ZINC000095390027    0.1200
9      H9     -3.8410   -1.2605    3.1480 H        1 ZINC000095390027    0.1000
10     C10    -5.7214   -1.1790    2.0657 C.3      1 ZINC000095390027   -0.1500
11     C11    -6.5618   -0.1065    2.8079 C.3      1 ZINC000095390027   -0.1300
12     C12    -5.7246    1.1726    2.5576 C.3      1 ZINC000095390027    0.0900
13     N13    -4.3186    0.7237    2.6240 N.am     1 ZINC000095390027   -0.6000
14     C14    -3.2589    1.5018    2.9209 C.2      1 ZINC000095390027    0.6100
15     O15    -2.1334    1.0447    2.8620 O.2      1 ZINC000095390027   -0.5200
16     C16    -3.4638    2.9054    3.3167 C.ar     1 ZINC000095390027   -0.2200
17     C17    -3.6329    3.2396    4.6684 C.ar     1 ZINC000095390027    0.2100
18     O18    -3.6084    2.2706    5.6175 O.3      1 ZINC000095390027   -0.4800
19     C19    -3.8245    4.5627    5.0306 C.ar     1 ZINC000095390027   -0.1900
20     C20    -3.8491    5.5517    4.0623 C.ar     1 ZINC000095390027    0.1800
21     F21    -4.0364    6.8401    4.4229 F        1 ZINC000095390027   -0.1100
22     C22    -3.6820    5.2275    2.7241 C.ar     1 ZINC000095390027   -0.2000
23     C23    -3.4851    3.9147    2.3461 C.ar     1 ZINC000095390027    0.1800
24     F24    -3.3223    3.6030    1.0417 F        1 ZINC000095390027   -0.1200
25     C25    -4.3714   -3.0936    0.5802 C.3      1 ZINC000095390027   -0.0700
26     C26    -4.1028   -4.5888    0.4453 C.3      1 ZINC000095390027    0.0800
27     H27    -4.9865   -5.0402   -0.0478 H        1 ZINC000095390027    0.1400
28     C28    -3.9888   -5.2294    1.8311 C.3      1 ZINC000095390027   -0.2000
29     O29    -2.9701   -4.8714   -0.3459 O.3      1 ZINC000095390027   -0.3500
30     H30    -0.5530   -5.5192    0.5905 H        1 ZINC000095390027    0.0900
31     H31     0.0481   -3.8483    0.7123 H        1 ZINC000095390027    0.0800
32     H32    -1.3087   -4.3826    1.7330 H        1 ZINC000095390027    0.0600
33     H33    -1.2556   -2.0076    0.0589 H        1 ZINC000095390027    0.1400
34     H34    -2.5876   -2.1851   -1.1020 H        1 ZINC000095390027    0.1400
35     H35    -2.4980   -0.3843    1.1311 H        1 ZINC000095390027    0.1500
36     H36    -3.9855   -0.6000    0.1777 H        1 ZINC000095390027    0.1400
37     H37    -5.9519   -1.1802    1.0003 H        1 ZINC000095390027    0.0900
38     H38    -5.8867   -2.1658    2.4982 H        1 ZINC000095390027    0.1000
39     H39    -7.5551   -0.0156    2.3686 H        1 ZINC000095390027    0.1000
40     H40    -6.6262   -0.3290    3.8730 H        1 ZINC000095390027    0.0900
41     H41    -5.9465    1.5845    1.5731 H        1 ZINC000095390027    0.0800
42     H42    -5.9221    1.9130    3.3327 H        1 ZINC000095390027    0.0900
43     H43    -2.7280    2.0936    5.9762 H        1 ZINC000095390027    0.4100
44     H44    -3.9553    4.8232    6.0705 H        1 ZINC000095390027    0.1600
45     H45    -3.7026    6.0056    1.9754 H        1 ZINC000095390027    0.1600
46     H46    -5.1102   -2.9251    1.3676 H        1 ZINC000095390027    0.1600
47     H47    -4.7686   -2.7074   -0.3615 H        1 ZINC000095390027    0.1400
48     H48    -4.8860   -5.0072    2.4089 H        1 ZINC000095390027    0.0800
49     H49    -3.8832   -6.3090    1.7248 H        1 ZINC000095390027    0.0900
50     H50    -3.1162   -4.8279    2.3463 H        1 ZINC000095390027    0.0600
@<TRIPOS>BOND
1     1     2     1
2     1     30    1
3     1     31    1
4     1     32    1
5     2     3     1
6     2     29    1
7     2     4     1
8     4     5     1
9     4     33    1
10    4     34    1
11    5     6     1
12    5     7     1
13    5     25    1
14    7     8     1
15    7     35    1
16    7     36    1
17    8     9     1
18    8     13    1
19    8     10    1
20    10    11    1
21    10    37    1
22    10    38    1
23    11    12    1
24    11    39    1
25    11    40    1
26    12    13    1
27    12    41    1
28    12    42    1
29    13    14    am
30    14    15    2
31    14    16    1
32    16    23    ar
33    16    17    ar
34    17    18    1
35    17    19    ar
36    18    43    1
37    19    20    ar
38    19    44    1
39    20    21    1
40    20    22    ar
41    22    23    ar
42    22    45    1
43    23    24    1
44    25    26    1
45    25    46    1
46    25    47    1
47    26    27    1
48    26    28    1
49    26    29    1
50    28    48    1
51    28    49    1
52    28    50    1
@<TRIPOS>SUBSTRUCTURE
1   ZINC000095390027 1     RESIDUE    1   A     ZIN   1
@<TRIPOS>MOLECULE
ZINC000097991325
  28   29    0    0    0
SMALL
USER_CHARGES
NO_NAME
@<TRIPOS>ATOM
    1 C1       -0.0513     1.4505    -0.5147 C.3    1 <0>       0.0200
    2 O2       -0.0424     0.0297    -0.6673 O.3    1 <0>      -0.3000
    3 C3       -1.2405    -0.6081    -0.5808 C.ar   1 <0>       0.1100
    4 C4       -2.3953     0.1182    -0.3601 C.ar   1 <0>      -0.1400
    5 C5       -3.6251    -0.5400    -0.2716 C.ar   1 <0>      -0.0400
    6 C6       -4.8600     0.2299    -0.0368 C.2    1 <0>       0.2100
    7 N7       -6.0012    -0.3830     0.0451 N.2    1 <0>      -0.2500
    8 N8       -7.1862     0.3554     0.1599 N.am   1 <0>      -0.3900
    9 C9       -7.5803     1.1108    -0.8515 C.2    1 <0>       0.5100
   10 O10      -6.9620     1.2013    -1.8907 O.2    1 <0>      -0.4400
   11 C11      -8.8741     1.8514    -0.5926 C.3    1 <0>      -0.1600
   12 S12      -9.3167     1.3263     1.0979 S.3    1 <0>       0.0300
   13 C13      -7.8988     0.2788     1.2859 C.2    1 <0>       0.2700
   14 S14      -7.5094    -0.6562     2.6661 S.2    1 <0>      -0.3200
   15 C15      -3.6812    -1.9293    -0.4067 C.ar   1 <0>      -0.0500
   16 C16      -2.5239    -2.6480    -0.6269 C.ar   1 <0>      -0.1000
   17 Br17     -2.6015    -4.5285    -0.8095 Br     1 <0>      -0.0100
   18 C18      -1.3039    -1.9929    -0.7203 C.ar   1 <0>       0.1400
   19 O19      -0.1668    -2.7053    -0.9377 O.3    1 <0>      -0.4700
   20 H20       0.9657     1.8320    -0.6052 H      1 <0>       0.1100
   21 H21      -0.6765     1.8952    -1.2890 H      1 <0>       0.0600
   22 H22      -0.4499     1.7080     0.4666 H      1 <0>       0.0600
   23 H23      -2.3476     1.1921    -0.2559 H      1 <0>       0.1500
   24 H24      -4.8152     1.3039     0.0670 H      1 <0>       0.1300
   25 H25      -8.7159     2.9291    -0.6324 H      1 <0>       0.1700
   26 H26      -9.6416     1.5469    -1.3042 H      1 <0>       0.1700
   27 H27      -4.6299    -2.4408    -0.3384 H      1 <0>       0.1500
   28 H28       0.0494    -2.8255    -1.8726 H      1 <0>       0.4000
@<TRIPOS>BOND
   1    1    2 1
   2    1   20 1
   3    1   21 1
   4    1   22 1
   5    2    3 1
   6    3   18 ar
   7    3    4 ar
   8    4    5 ar
   9    4   23 1
  10    5    6 1
  11    5   15 ar
  12    6    7 2
  13    6   24 1
  14    7    8 1
  15    8   13 am
  16    8    9 am
  17    9   10 2
  18    9   11 1
  19   11   12 1
  20   11   25 1
  21   11   26 1
  22   12   13 1
  23   13   14 2
  24   15   16 ar
  25   15   27 1
  26   16   17 1
  27   16   18 ar
  28   18   19 1
  29   19   28 1

@<TRIPOS>MOLECULE
ZINC000097991325
  27   28    0    0    0
SMALL
USER_CHARGES
NO_NAME
@<TRIPOS>ATOM
    1 C1        0.4536     1.4532     0.2432 C.3    1 <0>       0.0300
    2 O2        0.6035     0.0331     0.2988 O.3    1 <0>      -0.3000
    3 C3        1.1371    -0.5746    -0.7945 C.ar   1 <0>       0.0000
    4 C4        1.5118     0.1796    -1.8902 C.ar   1 <0>      -0.1200
    5 C5        2.0600    -0.4479    -3.0124 C.ar   1 <0>      -0.2100
    6 C6        2.4618     0.3520    -4.1836 C.2    1 <0>       0.2500
    7 N7        2.9707    -0.2324    -5.2248 N.2    1 <0>      -0.3200
    8 N8        3.4519     0.5352    -6.2935 N.am   1 <0>      -0.3800
    9 C9        4.5130     1.3038    -6.1140 C.2    1 <0>       0.5000
   10 O10       5.1026     1.3823    -5.0572 O.2    1 <0>      -0.4400
   11 C11       4.9238     2.0757    -7.3487 C.3    1 <0>      -0.1600
   12 S12       3.6891     1.5559    -8.5876 S.3    1 <0>      -0.0100
   13 C13       2.8341     0.4725    -7.4749 C.2    1 <0>       0.2900
   14 S14       1.4586    -0.4768    -7.8465 S.2    1 <0>      -0.3400
   15 C15       2.2266    -1.8348    -3.0212 C.ar   1 <0>       0.0200
   16 C16       1.8502    -2.5815    -1.9235 C.ar   1 <0>      -0.2300
   17 Br17      2.0764    -4.4589    -1.9369 Br     1 <0>      -0.0800
   18 C18       1.3112    -1.9570    -0.8074 C.ar   1 <0>       0.3100
   19 O19       0.9424    -2.6969     0.2717 O.3    1 <0>      -0.6500
   20 H20       1.4296     1.9162     0.0979 H      1 <0>       0.0400
   21 H21      -0.2010     1.7172    -0.5874 H      1 <0>       0.0400
   22 H22       0.0178     1.8093     1.1767 H      1 <0>       0.0900
   23 H23       1.3810     1.2516    -1.8795 H      1 <0>       0.1100
   24 H24       2.3327     1.4242    -4.1752 H      1 <0>       0.1100
   25 H25       4.8624     3.1493    -7.1703 H      1 <0>       0.1600
   26 H26       5.9283     1.7930    -7.6636 H      1 <0>       0.1600
   27 H27       2.6496    -2.3226    -3.8870 H      1 <0>       0.1200
@<TRIPOS>BOND
   1    1    2 1
   2    1   20 1
   3    1   21 1
   4    1   22 1
   5    2    3 1
   6    3   18 ar
   7    3    4 ar
   8    4    5 ar
   9    4   23 1
  10    5    6 1
  11    5   15 ar
  12    6    7 2
  13    6   24 1
  14    7    8 1
  15    8   13 am
  16    8    9 am
  17    9   10 2
  18    9   11 1
  19   11   12 1
  20   11   25 1
  21   11   26 1
  22   12   13 1
  23   13   14 2
  24   15   16 ar
  25   15   27 1
  26   16   17 1
  27   16   18 ar
  28   18   19 1
@<TRIPOS>MOLECULE
ZINC000005065335
  32   33    0    0    0
SMALL
USER_CHARGES
NO_NAME
@<TRIPOS>ATOM
    1 O1        0.0021    -0.0041     0.0020 O.co2  1 <0>      -0.7000
    2 C2       -0.0145     1.2150     0.0087 C.2    1 <0>       0.4900
    3 O3        1.0330     1.8389     0.0021 O.co2  1 <0>      -0.6700
    4 C4       -1.3296     1.9507     0.0190 C.3    1 <0>       0.0800
    5 H5       -1.9757     1.5440     0.7970 H      1 <0>       0.0600
    6 C6       -2.0165     1.8171    -1.3565 C.3    1 <0>      -0.1000
    7 C7       -2.6464     3.2192    -1.5681 C.3    1 <0>      -0.1300
    8 C8       -1.5848     4.1389    -0.9148 C.3    1 <0>       0.1200
    9 N9       -1.0996     3.3830     0.2582 N.am   1 <0>      -0.9800
   10 S10      -0.4105     4.0409     1.6127 S.o2   1 <0>       2.7100
   11 O11       0.3798     3.0158     2.1992 O.2    1 <0>      -0.9100
   12 O12       0.1166     5.3016     1.2228 O.2    1 <0>      -0.9600
   13 C13      -1.7136     4.3767     2.7502 C.ar   1 <0>      -0.6800
   14 C14      -2.3544     5.6011     2.7248 C.ar   1 <0>       0.0200
   15 C15      -3.3771     5.8649     3.6166 C.ar   1 <0>      -0.1300
   16 C16      -3.7591     4.9033     4.5347 C.ar   1 <0>       0.0500
   17 Cl17     -5.0437     5.2337     5.6546 Cl     1 <0>      -0.0400
   18 C18      -3.1172     3.6777     4.5597 C.ar   1 <0>      -0.2000
   19 C19      -3.5331     2.6293     5.5592 C.3    1 <0>       0.5100
   20 F20      -2.7450     1.4858     5.3908 F      1 <0>      -0.1700
   21 F21      -3.3619     3.1269     6.8554 F      1 <0>      -0.1700
   22 F22      -4.8785     2.3021     5.3592 F      1 <0>      -0.1700
   23 C23      -2.0985     3.4132     3.6641 C.ar   1 <0>       0.0400
   24 H24      -1.2836     1.6022    -2.1343 H      1 <0>       0.0700
   25 H25      -2.7882     1.0477    -1.3291 H      1 <0>       0.0700
   26 H26      -2.7564     3.4419    -2.6294 H      1 <0>       0.0800
   27 H27      -3.6033     3.2994    -1.0524 H      1 <0>       0.0700
   28 H28      -0.7672     4.3281    -1.6104 H      1 <0>       0.0700
   29 H29      -2.0393     5.0775    -0.5980 H      1 <0>       0.0700
   30 H30      -2.0558     6.3519     2.0082 H      1 <0>       0.1600
   31 H31      -3.8775     6.8218     3.5969 H      1 <0>       0.1500
   32 H32      -1.5976     2.4565     3.6833 H      1 <0>       0.1700
@<TRIPOS>BOND
   1    1    2 ar
   2    2    3 ar
   3    2    4 1
   4    4    5 1
   5    4    9 1
   6    4    6 1
   7    6    7 1
   8    6   24 1
   9    6   25 1
  10    7    8 1
  11    7   26 1
  12    7   27 1
  13    8    9 1
  14    8   28 1
  15    8   29 1
  16    9   10 am
  17   10   11 2
  18   10   12 2
  19   10   13 1
  20   13   23 ar
  21   13   14 ar
  22   14   15 ar
  23   14   30 1
  24   15   16 ar
  25   15   31 1
  26   16   17 1
  27   16   18 ar
  28   18   19 1
  29   18   23 ar
  30   19   20 1
  31   19   21 1
  32   19   22 1
  33   23   32 1
@<TRIPOS>MOLECULE
ZINC000006645460
  46   49    0    0    0
SMALL
USER_CHARGES
NO_NAME
@<TRIPOS>ATOM
    1 C1       -0.0187     1.5258     0.0104 C.3    1 <0>      -0.1500
    2 C2        0.0021    -0.0041     0.0020 C.3    1 <0>       0.0800
    3 O3        0.7043    -0.4851     1.1784 O.3    1 <0>      -0.3700
    4 C4        0.8121    -1.8193     1.3229 C.2    1 <0>       0.6500
    5 O5        0.3324    -2.5615     0.4889 O.2    1 <0>      -0.5800
    6 N6        1.4520    -2.3317     2.3927 N.am   1 <0>      -0.5900
    7 C7        2.0319    -1.4472     3.4126 C.3    1 <0>       0.1200
    8 C8        1.4938    -1.8595     4.7864 C.3    1 <0>      -0.1500
    9 C9        1.7717    -3.3473     5.0132 C.3    1 <0>       0.1700
   10 N10       1.2880    -3.7375     6.3398 N.am   1 <0>      -0.6400
   11 C11       2.1382    -4.2950     7.4381 C.3    1 <0>       0.1500
   12 C12       1.1347    -5.0523     8.2514 C.3    1 <0>       0.0800
   13 C13       0.6496    -6.3146     7.5623 C.2    1 <0>      -0.1900
   14 C14      -0.2143    -6.8712     8.3985 C.2    1 <0>      -0.1700
   15 C15      -0.3005    -5.9020     9.5840 C.3    1 <0>       0.1100
   16 H16      -0.6814    -6.3176    10.5169 H      1 <0>       0.1500
   17 O17       1.0875    -5.3658     9.6234 O.3    1 <0>      -0.3200
   18 C18      -1.1231    -4.7021     8.9727 C.3    1 <0>      -0.1500
   19 H19      -1.9086    -5.0639     8.3093 H      1 <0>       0.0900
   20 C20      -1.6962    -3.8297    10.0597 C.2    1 <0>       0.5100
   21 O21      -1.5152    -4.1167    11.2307 O.co2  1 <0>      -0.6900
   22 O22      -2.3410    -2.8369     9.7680 O.co2  1 <0>      -0.6900
   23 C23      -0.0213    -3.9742     8.2027 C.3    1 <0>      -0.1500
   24 H24       0.2913    -3.0953     8.7665 H      1 <0>       0.1100
   25 C25      -0.0143    -3.6419     6.7673 C.2    1 <0>       0.5500
   26 O26      -0.9754    -3.3428     6.0908 O.2    1 <0>      -0.5000
   27 C27       1.0500    -4.1714     3.9445 C.3    1 <0>      -0.1500
   28 C28       1.5777    -3.7855     2.5643 C.3    1 <0>       0.1300
   29 H29       1.0039     1.9031     0.0027 H      1 <0>       0.0700
   30 H30      -0.5459     1.8868    -0.8726 H      1 <0>       0.0800
   31 H31      -0.5289     1.8773     0.9072 H      1 <0>       0.0700
   32 H32      -1.0205    -0.3814     0.0098 H      1 <0>       0.0700
   33 H33       0.5123    -0.3556    -0.8948 H      1 <0>       0.0700
   34 H34       3.1179    -1.5405     3.4024 H      1 <0>       0.0700
   35 H35       1.7498    -0.4152     3.2044 H      1 <0>       0.1000
   36 H36       1.9890    -1.2746     5.5615 H      1 <0>       0.0800
   37 H37       0.4194    -1.6801     4.8251 H      1 <0>       0.0800
   38 H38       2.8444    -3.5302     4.9495 H      1 <0>       0.0900
   39 H39       2.9009    -4.9637     7.0392 H      1 <0>       0.0900
   40 H40       2.5911    -3.4954     8.0243 H      1 <0>       0.0800
   41 H41       0.9467    -6.6825     6.5913 H      1 <0>       0.1400
   42 H42      -0.7431    -7.8045     8.2726 H      1 <0>       0.1500
   43 H43       1.2292    -5.2321     4.1205 H      1 <0>       0.0800
   44 H44      -0.0203    -3.9702     3.9912 H      1 <0>       0.0900
   45 H45       0.9985    -4.2969     1.7955 H      1 <0>       0.1000
   46 H46       2.6273    -4.0678     2.4824 H      1 <0>       0.0700
@<TRIPOS>BOND
   1    1    2 1
   2    1   29 1
   3    1   30 1
   4    1   31 1
   5    2    3 1
   6    2   32 1
   7    2   33 1
   8    3    4 1
   9    4    5 2
  10    4    6 am
  11    6   28 1
  12    6    7 1
  13    7    8 1
  14    7   34 1
  15    7   35 1
  16    8    9 1
  17    8   36 1
  18    8   37 1
  19    9   10 1
  20    9   27 1
  21    9   38 1
  22   10   25 am
  23   10   11 1
  24   11   12 1
  25   11   39 1
  26   11   40 1
  27   12   17 1
  28   12   23 1
  29   12   13 1
  30   13   14 2
  31   13   41 1
  32   14   15 1
  33   14   42 1
  34   15   16 1
  35   15   17 1
  36   15   18 1
  37   18   19 1
  38   18   20 1
  39   18   23 1
  40   20   21 ar
  41   20   22 ar
  42   23   24 1
  43   23   25 1
  44   25   26 2
  45   27   28 1
  46   27   43 1
  47   27   44 1
  48   28   45 1
  49   28   46 1
@<TRIPOS>MOLECULE
ZINC000019340276
  43   46    0    0    0
SMALL
USER_CHARGES
NO_NAME
@<TRIPOS>ATOM
    1 O1       -0.1313     0.0154     0.1918 O.2    1 <0>      -0.5200
    2 C2       -0.0144     1.2113     0.0087 C.2    1 <0>       0.5900
    3 C3        1.3305     1.8228    -0.0461 C.ar   1 <0>      -0.1800
    4 C4        1.5452     3.0072    -0.7607 C.ar   1 <0>      -0.0500
    5 C5        2.8228     3.5390    -0.7803 C.ar   1 <0>      -0.1800
    6 C6        3.8369     2.8895    -0.0999 C.ar   1 <0>       0.1200
    7 N7        3.6051     1.7737     0.5652 N.ar   1 <0>      -0.4900
    8 C8        2.4062     1.2320     0.6184 C.ar   1 <0>       0.1600
    9 N9       -1.1107     1.9791    -0.1499 N.am   1 <0>      -0.5900
   10 C10      -1.1128     3.4208    -0.4580 C.3    1 <0>       0.0900
   11 C11      -2.4774     3.9358     0.0638 C.3    1 <0>      -0.1300
   12 C12      -3.4107     2.7437    -0.2754 C.3    1 <0>      -0.1200
   13 C13      -2.5026     1.5162    -0.0506 C.3    1 <0>       0.1900
   14 H14      -2.6800     1.1006     0.9414 H      1 <0>       0.1100
   15 C15      -2.7825     0.4724    -1.1009 C.2    1 <0>       0.4000
   16 N16      -2.1742     0.5512    -2.2519 N.2    1 <0>      -0.5200
   17 C17      -2.3901    -0.3556    -3.2201 C.2    1 <0>       0.2300
   18 C18      -1.6855    -0.2429    -4.5184 C.ar   1 <0>      -0.1100
   19 C19      -1.9097    -1.1796    -5.5326 C.ar   1 <0>      -0.0500
   20 C20      -1.2269    -1.0294    -6.7273 C.ar   1 <0>      -0.1700
   21 C21      -0.3532     0.0318    -6.8786 C.ar   1 <0>       0.1200
   22 N22      -0.1614     0.9000    -5.9037 N.ar   1 <0>      -0.4900
   23 C23      -0.7921     0.8023    -4.7517 C.ar   1 <0>       0.1500
   24 C24      -3.2753    -1.3960    -2.9953 C.2    1 <0>      -0.2800
   25 C25      -3.9225    -1.4656    -1.7482 C.2    1 <0>       0.5300
   26 O26      -4.7104    -2.3651    -1.5055 O.2    1 <0>      -0.5300
   27 N27      -3.6507    -0.5209    -0.8236 N.am   1 <0>      -0.6200
   28 H28       0.7348     3.4934    -1.2835 H      1 <0>       0.1500
   29 H29       3.0259     4.4513    -1.3214 H      1 <0>       0.1400
   30 H30       4.8348     3.3023    -0.1135 H      1 <0>       0.1600
   31 H31       2.2559     0.3177     1.1732 H      1 <0>       0.1700
   32 H32      -0.2950     3.9208     0.0609 H      1 <0>       0.0900
   33 H33      -1.0337     3.5789    -1.5336 H      1 <0>       0.0800
   34 H34      -2.4433     4.1117     1.1390 H      1 <0>       0.0900
   35 H35      -2.7845     4.8362    -0.4682 H      1 <0>       0.1000
   36 H36      -4.2675     2.7210     0.3979 H      1 <0>       0.1000
   37 H37      -3.7366     2.7926    -1.3144 H      1 <0>       0.0900
   38 H38      -2.5977    -1.9993    -5.3872 H      1 <0>       0.1400
   39 H39      -1.3746    -1.7338    -7.5326 H      1 <0>       0.1400
   40 H40       0.1811     0.1517    -7.8095 H      1 <0>       0.1600
   41 H41      -0.6089     1.5328    -3.9776 H      1 <0>       0.1700
   42 H42      -3.4647    -2.1360    -3.7588 H      1 <0>       0.1600
   43 H43      -4.0872    -0.5529     0.0421 H      1 <0>       0.4200
@<TRIPOS>BOND
   1    1    2 2
   2    2    3 1
   3    2    9 am
   4    3    8 ar
   5    3    4 ar
   6    4    5 ar
   7    4   28 1
   8    5    6 ar
   9    5   29 1
  10    6    7 ar
  11    6   30 1
  12    7    8 ar
  13    8   31 1
  14    9   13 1
  15    9   10 1
  16   10   11 1
  17   10   32 1
  18   10   33 1
  19   11   12 1
  20   11   34 1
  21   11   35 1
  22   12   13 1
  23   12   36 1
  24   12   37 1
  25   13   14 1
  26   13   15 1
  27   15   27 1
  28   15   16 2
  29   16   17 1
  30   17   18 1
  31   17   24 2
  32   18   23 ar
  33   18   19 ar
  34   19   20 ar
  35   19   38 1
  36   20   21 ar
  37   20   39 1
  38   21   22 ar
  39   21   40 1
  40   22   23 ar
  41   23   41 1
  42   24   25 1
  43   24   42 1
  44   25   26 2
  45   25   27 am
  46   27   43 1

@<TRIPOS>MOLECULE
ZINC000019340276
  42   45    0    0    0
SMALL
USER_CHARGES
NO_NAME
@<TRIPOS>ATOM
    1 O1       -0.1718     0.0211     0.1984 O.2    1 <0>      -0.5000
    2 C2       -0.0144     1.2113     0.0087 C.2    1 <0>       0.5800
    3 C3        1.3506     1.7755    -0.0553 C.ar   1 <0>      -0.1700
    4 C4        1.6025     2.9496    -0.7747 C.ar   1 <0>      -0.0600
    5 C5        2.8977     3.4366    -0.8028 C.ar   1 <0>      -0.1800
    6 C6        3.8922     2.7543    -0.1259 C.ar   1 <0>       0.1100
    7 N7        3.6255     1.6491     0.5440 N.ar   1 <0>      -0.4900
    8 C8        2.4088     1.1497     0.6053 C.ar   1 <0>       0.1500
    9 N9       -1.0842     2.0159    -0.1488 N.am   1 <0>      -0.6000
   10 C10      -1.0376     3.4560    -0.4606 C.3    1 <0>       0.0900
   11 C11      -2.3822     4.0189     0.0637 C.3    1 <0>      -0.1400
   12 C12      -3.3569     2.8587    -0.2699 C.3    1 <0>      -0.1100
   13 C13      -2.4909     1.6013    -0.0444 C.3    1 <0>       0.2200
   14 H14      -2.6795     1.1945     0.9491 H      1 <0>       0.0900
   15 C15      -2.8094     0.5651    -1.0913 C.2    1 <0>       0.3400
   16 N16      -1.8414     0.0774    -1.8166 N.2    1 <0>      -0.5900
   17 C17      -2.0749    -0.8487    -2.7623 C.2    1 <0>       0.2000
   18 C18      -0.9569    -1.3866    -3.5720 C.ar   1 <0>      -0.0700
   19 C19      -1.1933    -2.3462    -4.5617 C.ar   1 <0>      -0.0700
   20 C20      -0.1147    -2.8163    -5.2908 C.ar   1 <0>      -0.1800
   21 C21       1.1501    -2.3269    -5.0201 C.ar   1 <0>       0.0800
   22 N22       1.3429    -1.4218    -4.0797 N.ar   1 <0>      -0.4900
   23 C23       0.3479    -0.9402    -3.3639 C.ar   1 <0>       0.1300
   24 C24      -3.3676    -1.2968    -2.9739 C.2    1 <0>      -0.3500
   25 C25      -4.3993    -0.7599    -2.1826 C.2    1 <0>       0.4900
   26 O26      -5.5536    -1.1253    -2.3337 O.2    1 <0>      -0.6300
   27 N27      -4.0864     0.1631    -1.2491 N.pl3  1 <0>      -0.6500
   28 H28       0.8066     3.4621    -1.2947 H      1 <0>       0.1500
   29 H29       3.1294     4.3396    -1.3479 H      1 <0>       0.1400
   30 H30       4.9038     3.1320    -0.1461 H      1 <0>       0.1600
   31 H31       2.2298     0.2428     1.1638 H      1 <0>       0.1600
   32 H32      -0.2016     3.9289     0.0547 H      1 <0>       0.0800
   33 H33      -0.9563     3.6087    -1.5368 H      1 <0>       0.0700
   34 H34      -2.3391     4.1962     1.1383 H      1 <0>       0.0800
   35 H35      -2.6598     4.9280    -0.4698 H      1 <0>       0.0800
   36 H36      -4.2121     2.8671     0.4059 H      1 <0>       0.0900
   37 H37      -3.6839     2.9162    -1.3081 H      1 <0>       0.0800
   38 H38      -2.1917    -2.7113    -4.7519 H      1 <0>       0.1400
   39 H39      -0.2593    -3.5577    -6.0627 H      1 <0>       0.1300
   40 H40       1.9937    -2.6918    -5.5873 H      1 <0>       0.1500
   41 H41       0.5453    -0.1997    -2.6029 H      1 <0>       0.1600
   42 H42      -3.5788    -2.0401    -3.7284 H      1 <0>       0.1100
@<TRIPOS>BOND
   1    1    2 2
   2    2    3 1
   3    2    9 am
   4    3    8 ar
   5    3    4 ar
   6    4    5 ar
   7    4   28 1
   8    5    6 ar
   9    5   29 1
  10    6    7 ar
  11    6   30 1
  12    7    8 ar
  13    8   31 1
  14    9   13 1
  15    9   10 1
  16   10   11 1
  17   10   32 1
  18   10   33 1
  19   11   12 1
  20   11   34 1
  21   11   35 1
  22   12   13 1
  23   12   36 1
  24   12   37 1
  25   13   14 1
  26   13   15 1
  27   15   27 1
  28   15   16 2
  29   16   17 1
  30   17   18 1
  31   17   24 2
  32   18   23 ar
  33   18   19 ar
  34   19   20 ar
  35   19   38 1
  36   20   21 ar
  37   20   39 1
  38   21   22 ar
  39   21   40 1
  40   22   23 ar
  41   23   41 1
  42   24   25 1
  43   24   42 1
  44   25   26 2
  45   25   27 1
@<TRIPOS>MOLECULE
ZINC000019553160
47    50    1     0     0
SMALL
USER_CHARGES
@<TRIPOS>ATOM
1      C1     -0.0184    1.5028    0.0103 C.3      1 ZINC000019553160   -0.1000
2      C2      0.0021   -0.0041    0.0020 C.2      1 ZINC000019553160    0.1600
3      C3      0.0081   -0.8150   -1.1151 C.2      1 ZINC000019553160   -0.3000
4      C4     -0.0043   -0.3691   -2.5203 C.2      1 ZINC000019553160    0.6200
5      O5     -0.0216    0.8185   -2.7812 O.2      1 ZINC000019553160   -0.5400
6      N6      0.0036   -1.2777   -3.5157 N.am     1 ZINC000019553160   -0.6200
7      C7      0.0178   -2.7377   -3.3431 C.3      1 ZINC000019553160    0.0900
8      C8     -0.0056   -3.3660   -4.7524 C.3      1 ZINC000019553160   -0.1200
9      C9     -0.6027   -2.2329   -5.6282 C.3      1 ZINC000019553160   -0.0700
10     H10    -1.6910   -2.2255   -5.5688 H        1 ZINC000019553160    0.1200
11     C11    -0.1434   -2.3564   -7.0582 C.2      1 ZINC000019553160    0.4200
12     N12     0.9752   -2.9763   -7.3141 N.2      1 ZINC000019553160   -0.5200
13     C13     1.4265   -3.1127   -8.5728 C.2      1 ZINC000019553160    0.2300
14     C14     2.7002   -3.8221   -8.8359 C.ar     1 ZINC000019553160   -0.1200
15     C15     3.1789   -3.9627  -10.1425 C.ar     1 ZINC000019553160   -0.0500
16     C16     4.3743   -4.6335  -10.3348 C.ar     1 ZINC000019553160   -0.1800
17     C17     5.0508   -5.1385   -9.2394 C.ar     1 ZINC000019553160    0.1200
18     N18     4.5745   -4.9909   -8.0179 N.ar     1 ZINC000019553160   -0.4900
19     C19     3.4448   -4.3556   -7.7842 C.ar     1 ZINC000019553160    0.1500
20     C20     0.6923   -2.5860   -9.6216 C.2      1 ZINC000019553160   -0.2800
21     C21    -0.5116   -1.9205   -9.3273 C.2      1 ZINC000019553160    0.5300
22     O22    -1.1916   -1.4409  -10.2197 O.2      1 ZINC000019553160   -0.5300
23     N23    -0.9024   -1.8279   -8.0389 N.am     1 ZINC000019553160   -0.6300
24     C24    -0.0070   -0.9723   -4.9579 C.3      1 ZINC000019553160    0.1300
25     C25     0.0283   -2.1523   -0.6597 C.2      1 ZINC000019553160    0.0700
26     N26     0.0339   -2.1344    0.6447 N.2      1 ZINC000019553160   -0.3000
27     N27     0.0236   -0.8045    1.0797 N.pl3    1 ZINC000019553160   -0.3600
28     C28     0.0258   -0.3604    2.4758 C.3      1 ZINC000019553160    0.0900
29     H29     1.0042    1.8801    0.0026 H        1 ZINC000019553160    0.0900
30     H30    -0.5455    1.8639   -0.8728 H        1 ZINC000019553160    0.1100
31     H31    -0.5286    1.8543    0.9071 H        1 ZINC000019553160    0.0700
32     H32     0.9235   -3.0401   -2.8174 H        1 ZINC000019553160    0.0800
33     H33    -0.8618   -3.0532   -2.7819 H        1 ZINC000019553160    0.0800
34     H34     1.0035   -3.6156   -5.0802 H        1 ZINC000019553160    0.1100
35     H35    -0.6474   -4.2468   -4.7714 H        1 ZINC000019553160    0.0900
36     H36     2.6297   -3.5585  -10.9800 H        1 ZINC000019553160    0.1400
37     H37     4.7743   -4.7616  -11.3298 H        1 ZINC000019553160    0.1400
38     H38     5.9837   -5.6624   -9.3862 H        1 ZINC000019553160    0.1600
39     H39     3.0873   -4.2548   -6.7701 H        1 ZINC000019553160    0.1700
40     H40     1.0357   -2.6832  -10.6410 H        1 ZINC000019553160    0.1600
41     H41    -1.7299   -1.3730   -7.8169 H        1 ZINC000019553160    0.4200
42     H42    -0.6330   -0.1033   -5.1605 H        1 ZINC000019553160    0.0900
43     H43     1.0095   -0.7993   -5.3111 H        1 ZINC000019553160    0.0800
44     H44     0.0371   -3.0347   -1.2823 H        1 ZINC000019553160    0.2000
45     H45     1.0539   -0.2413    2.8176 H        1 ZINC000019553160    0.0800
46     H46    -0.4961    0.5933    2.5546 H        1 ZINC000019553160    0.0900
47     H47    -0.4789   -1.1029    3.0940 H        1 ZINC000019553160    0.1000
@<TRIPOS>BOND
1     1     2     1
2     1     29    1
3     1     30    1
4     1     31    1
5     2     27    1
6     2     3     2
7     3     4     1
8     3     25    1
9     4     5     2
10    4     6     am
11    6     24    1
12    6     7     1
13    7     8     1
14    7     32    1
15    7     33    1
16    8     9     1
17    8     34    1
18    8     35    1
19    9     10    1
20    9     11    1
21    9     24    1
22    11    23    1
23    11    12    2
24    12    13    1
25    13    14    1
26    13    20    2
27    14    19    ar
28    14    15    ar
29    15    16    ar
30    15    36    1
31    16    17    ar
32    16    37    1
33    17    18    ar
34    17    38    1
35    18    19    ar
36    19    39    1
37    20    21    1
38    20    40    1
39    21    22    2
40    21    23    am
41    23    41    1
42    24    42    1
43    24    43    1
44    25    26    2
45    25    44    1
46    26    27    1
47    27    28    1
48    28    45    1
49    28    46    1
50    28    47    1
@<TRIPOS>SUBSTRUCTURE
1   ZINC000019553160 1     RESIDUE    1   A     ZIN   1

@<TRIPOS>MOLECULE
ZINC000019553160
46    49    1     0     0
SMALL
USER_CHARGES
@<TRIPOS>ATOM
1      C1     -0.0184    1.5028    0.0103 C.3      1 ZINC000019553160   -0.1000
2      C2      0.0021   -0.0041    0.0020 C.2      1 ZINC000019553160    0.1500
3      C3      0.0081   -0.8150   -1.1151 C.2      1 ZINC000019553160   -0.2900
4      C4     -0.0043   -0.3691   -2.5203 C.2      1 ZINC000019553160    0.6100
5      O5     -0.0216    0.8185   -2.7812 O.2      1 ZINC000019553160   -0.5500
6      N6      0.0036   -1.2777   -3.5157 N.am     1 ZINC000019553160   -0.6100
7      C7      0.0178   -2.7377   -3.3431 C.3      1 ZINC000019553160    0.1000
8      C8     -0.0056   -3.3660   -4.7524 C.3      1 ZINC000019553160   -0.1100
9      C9     -0.6027   -2.2329   -5.6282 C.3      1 ZINC000019553160   -0.0200
10     H10    -1.6910   -2.2255   -5.5688 H        1 ZINC000019553160    0.1000
11     C11    -0.1434   -2.3564   -7.0582 C.2      1 ZINC000019553160    0.3600
12     N12     0.8995   -1.6786   -7.4505 N.2      1 ZINC000019553160   -0.6100
13     C13     1.3479   -1.7557   -8.7153 C.2      1 ZINC000019553160    0.2000
14     C14     2.5353   -0.9755   -9.1347 C.ar     1 ZINC000019553160   -0.0700
15     C15     3.0040   -1.0463  -10.4506 C.ar     1 ZINC000019553160   -0.0700
16     C16     4.1169   -0.2974  -10.7921 C.ar     1 ZINC000019553160   -0.1800
17     C17     4.7241    0.4895   -9.8305 C.ar     1 ZINC000019553160    0.0800
18     N18     4.2597    0.5361   -8.5964 N.ar     1 ZINC000019553160   -0.4900
19     C19     3.2009   -0.1536   -8.2255 C.ar     1 ZINC000019553160    0.1300
20     C20     0.6924   -2.5699   -9.6230 C.2      1 ZINC000019553160   -0.3500
21     C21    -0.4306   -3.2937   -9.1826 C.2      1 ZINC000019553160    0.4900
22     O22    -1.0392   -4.0239   -9.9476 O.2      1 ZINC000019553160   -0.6200
23     N23    -0.8182   -3.1687   -7.8960 N.pl3    1 ZINC000019553160   -0.6500
24     C24    -0.0070   -0.9723   -4.9579 C.3      1 ZINC000019553160    0.1200
25     C25     0.0283   -2.1523   -0.6597 C.2      1 ZINC000019553160    0.0700
26     N26     0.0339   -2.1344    0.6447 N.2      1 ZINC000019553160   -0.3000
27     N27     0.0236   -0.8045    1.0797 N.pl3    1 ZINC000019553160   -0.3700
28     C28     0.0258   -0.3604    2.4758 C.3      1 ZINC000019553160    0.1000
29     H29     1.0042    1.8801    0.0026 H        1 ZINC000019553160    0.0900
30     H30    -0.5455    1.8639   -0.8728 H        1 ZINC000019553160    0.1100
31     H31    -0.5286    1.8543    0.9071 H        1 ZINC000019553160    0.0700
32     H32     0.9235   -3.0401   -2.8174 H        1 ZINC000019553160    0.0700
33     H33    -0.8618   -3.0532   -2.7819 H        1 ZINC000019553160    0.0700
34     H34     1.0035   -3.6156   -5.0802 H        1 ZINC000019553160    0.0800
35     H35    -0.6474   -4.2468   -4.7714 H        1 ZINC000019553160    0.0900
36     H36     2.5104   -1.6697  -11.1815 H        1 ZINC000019553160    0.1400
37     H37     4.5071   -0.3275  -11.7987 H        1 ZINC000019553160    0.1300
38     H38     5.5926    1.0750  -10.0939 H        1 ZINC000019553160    0.1500
39     H39     2.8504   -0.0893   -7.2060 H        1 ZINC000019553160    0.1700
40     H40     1.0346   -2.6472  -10.6445 H        1 ZINC000019553160    0.1100
41     H41    -0.6330   -0.1033   -5.1605 H        1 ZINC000019553160    0.0800
42     H42     1.0095   -0.7993   -5.3111 H        1 ZINC000019553160    0.0900
43     H43     0.0371   -3.0347   -1.2823 H        1 ZINC000019553160    0.2000
44     H44     1.0539   -0.2413    2.8176 H        1 ZINC000019553160    0.0800
45     H45    -0.4961    0.5933    2.5546 H        1 ZINC000019553160    0.0900
46     H46    -0.4789   -1.1029    3.0940 H        1 ZINC000019553160    0.0900
@<TRIPOS>BOND
1     1     2     1
2     1     29    1
3     1     30    1
4     1     31    1
5     2     27    1
6     2     3     2
7     3     4     1
8     3     25    1
9     4     5     2
10    4     6     am
11    6     24    1
12    6     7     1
13    7     8     1
14    7     32    1
15    7     33    1
16    8     9     1
17    8     34    1
18    8     35    1
19    9     10    1
20    9     11    1
21    9     24    1
22    11    23    1
23    11    12    2
24    12    13    1
25    13    14    1
26    13    20    2
27    14    19    ar
28    14    15    ar
29    15    16    ar
30    15    36    1
31    16    17    ar
32    16    37    1
33    17    18    ar
34    17    38    1
35    18    19    ar
36    19    39    1
37    20    21    1
38    20    40    1
39    21    22    2
40    21    23    1
41    24    41    1
42    24    42    1
43    25    26    2
44    25    43    1
45    26    27    1
46    27    28    1
47    28    44    1
48    28    45    1
49    28    46    1
@<TRIPOS>SUBSTRUCTURE
1   ZINC000019553160 1     RESIDUE    1   A     ZIN   1
@<TRIPOS>MOLECULE
ZINC000019818734
  48   51    0    0    0
SMALL
USER_CHARGES
NO_NAME
@<TRIPOS>ATOM
    1 O1        0.0021    -0.0041     0.0020 O.2    1 <0>      -0.4500
    2 C2       -0.0144     1.2086     0.0087 C.2    1 <0>       0.4100
    3 C3       -1.3208     1.9758     0.0317 C.3    1 <0>      -0.1700
    4 C4       -1.1873     3.1419    -0.9566 C.3    1 <0>      -0.1200
    5 C5       -0.0957     4.0942    -0.4736 C.3    1 <0>      -0.1100
    6 C6        1.1955     3.3662    -0.2382 C.ar   1 <0>       0.1200
    7 C7        1.2341     1.9882     0.0010 C.ar   1 <0>      -0.2700
    8 C8        2.4658     1.3590     0.2188 C.ar   1 <0>       0.2400
    9 N9        3.5898     2.0438     0.2004 N.ar   1 <0>      -0.5200
   10 C10       3.6065     3.3495    -0.0237 C.ar   1 <0>       0.4300
   11 C11       2.4048     4.0527    -0.2447 C.ar   1 <0>      -0.2700
   12 C12       2.4734     5.5039    -0.4886 C.2    1 <0>       0.5700
   13 O13       1.4643     6.1534    -0.6838 O.2    1 <0>      -0.4800
   14 N14       3.6898     6.0930    -0.4887 N.am   1 <0>      -0.6600
   15 C15       4.8050     5.3778    -0.2737 C.2    1 <0>       0.7100
   16 O16       5.8749     5.9547    -0.2846 O.2    1 <0>      -0.5200
   17 N17       4.7925     4.0556    -0.0414 N.am   1 <0>      -0.5200
   18 C18       6.0562     3.3495     0.1836 C.3    1 <0>       0.1200
   19 C19       6.3836     3.3536     1.6781 C.3    1 <0>      -0.1400
   20 C20       7.7035     2.6163     1.9131 C.3    1 <0>       0.0600
   21 N21       8.0178     2.6202     3.3481 N.3    1 <0>      -0.5400
   22 C22       7.8320     3.9598     3.9245 C.3    1 <0>       0.0100
   23 C23       8.1118     3.9055     5.4287 C.3    1 <0>       0.0600
   24 O24       9.4326     3.4015     5.6450 O.3    1 <0>      -0.3900
   25 C25       9.6483     2.0982     5.0971 C.3    1 <0>       0.0600
   26 C26       9.3841     2.1341     3.5895 C.3    1 <0>       0.0200
   27 H27      -2.1388     1.3233    -0.2737 H      1 <0>       0.1000
   28 H28      -1.5070     2.3599     1.0346 H      1 <0>       0.1100
   29 H29      -0.9233     2.7556    -1.9411 H      1 <0>       0.0700
   30 H30      -2.1352     3.6766    -1.0180 H      1 <0>       0.0900
   31 H31       0.0622     4.8673    -1.2257 H      1 <0>       0.1200
   32 H32      -0.4164     4.5627     0.4568 H      1 <0>       0.1100
   33 H33       2.4940     0.2956     0.4051 H      1 <0>       0.1900
   34 H34       3.7579     7.0476    -0.6470 H      1 <0>       0.4400
   35 H35       5.9650     2.3210    -0.1656 H      1 <0>       0.1100
   36 H36       6.8545     3.8499    -0.3646 H      1 <0>       0.1000
   37 H37       6.4749     4.3821     2.0273 H      1 <0>       0.0700
   38 H38       5.5853     2.8533     2.2263 H      1 <0>       0.0800
   39 H39       7.6122     1.5877     1.5640 H      1 <0>       0.0800
   40 H40       8.5018     3.1166     1.3649 H      1 <0>       0.0400
   41 H41       8.5217     4.6586     3.4510 H      1 <0>       0.0400
   42 H42       6.8067     4.2893     3.7566 H      1 <0>       0.0900
   43 H43       8.0310     4.9075     5.8503 H      1 <0>       0.1000
   44 H44       7.3879     3.2480     5.9101 H      1 <0>       0.0600
   45 H45      10.6788     1.7929     5.2788 H      1 <0>       0.1000
   46 H46       8.9691     1.3880     5.5688 H      1 <0>       0.0600
   47 H47       9.4917     1.1309     3.1771 H      1 <0>       0.0900
   48 H48      10.0985     2.8037     3.1106 H      1 <0>       0.0400
@<TRIPOS>BOND
   1    1    2 2
   2    2    7 1
   3    2    3 1
   4    3    4 1
   5    3   27 1
   6    3   28 1
   7    4    5 1
   8    4   29 1
   9    4   30 1
  10    5    6 1
  11    5   31 1
  12    5   32 1
  13    6   11 ar
  14    6    7 ar
  15    7    8 ar
  16    8    9 ar
  17    8   33 1
  18    9   10 ar
  19   10   17 1
  20   10   11 ar
  21   11   12 1
  22   12   13 2
  23   12   14 am
  24   14   15 am
  25   14   34 1
  26   15   16 2
  27   15   17 am
  28   17   18 1
  29   18   19 1
  30   18   35 1
  31   18   36 1
  32   19   20 1
  33   19   37 1
  34   19   38 1
  35   20   21 1
  36   20   39 1
  37   20   40 1
  38   21   26 1
  39   21   22 1
  40   22   23 1
  41   22   41 1
  42   22   42 1
  43   23   24 1
  44   23   43 1
  45   23   44 1
  46   24   25 1
  47   25   26 1
  48   25   45 1
  49   25   46 1
  50   26   47 1
  51   26   48 1

@<TRIPOS>MOLECULE
ZINC000019818734
  47   50    0    0    0
SMALL
USER_CHARGES
NO_NAME
@<TRIPOS>ATOM
    1 O1        0.0021    -0.0041     0.0020 O.2    1 <0>      -0.4700
    2 C2       -0.0144     1.2086     0.0087 C.2    1 <0>       0.4200
    3 C3       -1.3208     1.9758     0.0317 C.3    1 <0>      -0.1600
    4 C4       -1.1873     3.1419    -0.9566 C.3    1 <0>      -0.1100
    5 C5       -0.0957     4.0942    -0.4736 C.3    1 <0>      -0.1000
    6 C6        1.1955     3.3662    -0.2382 C.ar   1 <0>       0.1000
    7 C7        1.2341     1.9882     0.0010 C.ar   1 <0>      -0.3000
    8 C8        2.4658     1.3590     0.2188 C.ar   1 <0>       0.2200
    9 N9        3.5898     2.0438     0.2004 N.ar   1 <0>      -0.5400
   10 C10       3.6065     3.3495    -0.0237 C.ar   1 <0>       0.4300
   11 C11       2.4048     4.0527    -0.2447 C.ar   1 <0>      -0.2800
   12 C12       2.4734     5.5039    -0.4886 C.2    1 <0>       0.5400
   13 O13       1.4643     6.1534    -0.6838 O.2    1 <0>      -0.5600
   14 N14       3.6898     6.0930    -0.4887 N.pl3  1 <0>      -0.6900
   15 C15       4.8050     5.3779    -0.2733 C.2    1 <0>       0.6600
   16 O16       5.8749     5.9548    -0.2838 O.2    1 <0>      -0.5900
   17 N17       4.7925     4.0556    -0.0414 N.am   1 <0>      -0.5400
   18 C18       6.0562     3.3496     0.1841 C.3    1 <0>       0.1200
   19 C19       6.3827     3.3533     1.6789 C.3    1 <0>      -0.1300
   20 C20       7.7025     2.6160     1.9144 C.3    1 <0>       0.0600
   21 N21       8.0160     2.6195     3.3496 N.3    1 <0>      -0.5400
   22 C22       7.8297     3.9589     3.9263 C.3    1 <0>       0.0100
   23 C23       8.1086     3.9042     5.4306 C.3    1 <0>       0.0600
   24 O24       9.4293     3.4002     5.6475 O.3    1 <0>      -0.3900
   25 C25       9.6455     2.0971     5.0993 C.3    1 <0>       0.0600
   26 C26       9.3822     2.1335     3.5916 C.3    1 <0>       0.0200
   27 H27      -2.1388     1.3233    -0.2737 H      1 <0>       0.0900
   28 H28      -1.5070     2.3599     1.0346 H      1 <0>       0.1000
   29 H29      -0.9233     2.7556    -1.9411 H      1 <0>       0.0700
   30 H30      -2.1352     3.6766    -1.0180 H      1 <0>       0.0800
   31 H31       0.0622     4.8673    -1.2257 H      1 <0>       0.1200
   32 H32      -0.4164     4.5627     0.4568 H      1 <0>       0.0900
   33 H33       2.4940     0.2956     0.4051 H      1 <0>       0.1700
   34 H34       5.9653     2.3212    -0.1654 H      1 <0>       0.0900
   35 H35       6.8548     3.8502    -0.3634 H      1 <0>       0.0900
   36 H36       6.4736     4.3817     2.0284 H      1 <0>       0.0700
   37 H37       5.5841     2.8527     2.2264 H      1 <0>       0.0700
   38 H38       7.6116     1.5876     1.5649 H      1 <0>       0.0800
   39 H39       8.5011     3.1166     1.3669 H      1 <0>       0.0400
   40 H40       8.5195     4.6579     3.4534 H      1 <0>       0.0400
   41 H41       6.8044     4.2883     3.7579 H      1 <0>       0.0900
   42 H42       8.0274     4.9060     5.8525 H      1 <0>       0.1000
   43 H43       7.3845     3.2464     5.9113 H      1 <0>       0.0600
   44 H44      10.6759     1.7920     5.2816 H      1 <0>       0.1000
   45 H45       8.9661     1.3868     5.5704 H      1 <0>       0.0600
   46 H46       9.4901     1.1305     3.1790 H      1 <0>       0.0900
   47 H47      10.0968     2.8034     3.1134 H      1 <0>       0.0400
@<TRIPOS>BOND
   1    1    2 2
   2    2    7 1
   3    2    3 1
   4    3    4 1
   5    3   27 1
   6    3   28 1
   7    4    5 1
   8    4   29 1
   9    4   30 1
  10    5    6 1
  11    5   31 1
  12    5   32 1
  13    6   11 ar
  14    6    7 ar
  15    7    8 ar
  16    8    9 ar
  17    8   33 1
  18    9   10 ar
  19   10   17 1
  20   10   11 ar
  21   11   12 1
  22   12   13 2
  23   12   14 1
  24   14   15 1
  25   15   16 2
  26   15   17 am
  27   17   18 1
  28   18   19 1
  29   18   34 1
  30   18   35 1
  31   19   20 1
  32   19   36 1
  33   19   37 1
  34   20   21 1
  35   20   38 1
  36   20   39 1
  37   21   26 1
  38   21   22 1
  39   22   23 1
  40   22   40 1
  41   22   41 1
  42   23   24 1
  43   23   42 1
  44   23   43 1
  45   24   25 1
  46   25   26 1
  47   25   44 1
  48   25   45 1
  49   26   46 1
  50   26   47 1
@<TRIPOS>MOLECULE
ZINC000032656644
47    49    1     0     0
SMALL
USER_CHARGES
@<TRIPOS>ATOM
1      C1      0.0460    1.5237    0.0708 C.3      1 ZINC000032656644   -0.1500
2      C2      0.0763   -0.0060    0.0701 C.3      1 ZINC000032656644    0.0600
3      O3      0.7370   -0.4764   -1.1343 O.3      1 ZINC000032656644   -0.3500
4      C4      0.8470   -1.8052   -1.2897 C.2      1 ZINC000032656644    0.4700
5      O5      0.4059   -2.5505   -0.4472 O.2      1 ZINC000032656644   -0.5000
6      C6      1.5207   -2.3673   -2.5149 C.3      1 ZINC000032656644   -0.1000
7      H7      0.9848   -2.0418   -3.4064 H        1 ZINC000032656644    0.1200
8      C8      1.5147   -3.8961   -2.4450 C.3      1 ZINC000032656644   -0.1000
9      C9      2.1694   -4.4686   -3.7043 C.3      1 ZINC000032656644   -0.1400
10     C10     3.6239   -3.9937   -3.7797 C.3      1 ZINC000032656644    0.1000
11     N11     3.6471   -2.5268   -3.7012 N.am     1 ZINC000032656644   -0.6100
12     C12     4.2795   -1.7986   -4.6427 C.2      1 ZINC000032656644    0.5600
13     O13     4.2027   -0.5862   -4.6262 O.2      1 ZINC000032656644   -0.4900
14     C14     5.0686   -2.4770   -5.6984 C.ar     1 ZINC000032656644    0.0400
15     C15     6.0698   -3.3936   -5.3726 C.ar     1 ZINC000032656644   -0.2100
16     C16     6.7828   -4.0044   -6.3905 C.ar     1 ZINC000032656644    0.2200
17     C17     7.8639   -4.9940   -6.0397 C.3      1 ZINC000032656644   -0.1100
18     N18     6.5387   -3.7416   -7.6580 N.ar     1 ZINC000032656644   -0.5100
19     C19     5.6016   -2.8816   -8.0290 C.ar     1 ZINC000032656644    0.4100
20     C20     4.8291   -2.2228   -7.0581 C.ar     1 ZINC000032656644   -0.2500
21     C21     3.8918   -1.3485   -7.7832 C.2      1 ZINC000032656644    0.5600
22     O22     3.0575   -0.6148   -7.2891 O.2      1 ZINC000032656644   -0.4900
23     N23     4.1346   -1.5159   -9.0994 N.am     1 ZINC000032656644   -0.5100
24     N24     5.1653   -2.4459   -9.2654 N.pl3    1 ZINC000032656644   -0.4000
25     C25     5.7064   -2.8849  -10.5541 C.3      1 ZINC000032656644    0.1100
26     C26     2.9677   -1.8680   -2.5773 C.3      1 ZINC000032656644    0.1300
27     H27     1.0658    1.9073    0.0424 H        1 ZINC000032656644    0.0700
28     H28    -0.4996    1.8767   -0.8043 H        1 ZINC000032656644    0.0700
29     H29    -0.4500    1.8768    0.9749 H        1 ZINC000032656644    0.0800
30     H30     0.6219   -0.3590    0.9452 H        1 ZINC000032656644    0.0700
31     H31    -0.9435   -0.3897    0.0985 H        1 ZINC000032656644    0.0700
32     H32     2.0715   -4.2217   -1.5663 H        1 ZINC000032656644    0.0800
33     H33     0.4869   -4.2524   -2.3761 H        1 ZINC000032656644    0.0800
34     H34     2.1438   -5.5576   -3.6647 H        1 ZINC000032656644    0.0900
35     H35     1.6278   -4.1233   -4.5850 H        1 ZINC000032656644    0.0700
36     H36     4.1889   -4.4132   -2.9473 H        1 ZINC000032656644    0.0800
37     H37     4.0651   -4.3162   -4.7228 H        1 ZINC000032656644    0.0900
38     H38     6.2858   -3.6231   -4.3397 H        1 ZINC000032656644    0.1500
39     H39     7.4354   -5.9945   -5.9807 H        1 ZINC000032656644    0.0900
40     H40     8.6372   -4.9747   -6.8076 H        1 ZINC000032656644    0.0900
41     H41     8.3010   -4.7286   -5.0771 H        1 ZINC000032656644    0.0900
42     H42     3.6652   -1.0645   -9.8183 H        1 ZINC000032656644    0.4400
43     H43     5.1811   -2.3749  -11.3615 H        1 ZINC000032656644    0.0900
44     H44     6.7685   -2.6448  -10.6030 H        1 ZINC000032656644    0.0800
45     H45     5.5723   -3.9618  -10.6566 H        1 ZINC000032656644    0.0800
46     H46     2.9764   -0.7884   -2.7271 H        1 ZINC000032656644    0.1100
47     H47     3.4787   -2.1139   -1.6465 H        1 ZINC000032656644    0.0800
@<TRIPOS>BOND
1     1     2     1
2     1     27    1
3     1     28    1
4     1     29    1
5     2     3     1
6     2     30    1
7     2     31    1
8     3     4     1
9     4     5     2
10    4     6     1
11    6     7     1
12    6     26    1
13    6     8     1
14    8     9     1
15    8     32    1
16    8     33    1
17    9     10    1
18    9     34    1
19    9     35    1
20    10    11    1
21    10    36    1
22    10    37    1
23    11    12    am
24    11    26    1
25    12    13    2
26    12    14    1
27    14    20    ar
28    14    15    ar
29    15    16    ar
30    15    38    1
31    16    17    1
32    16    18    ar
33    17    39    1
34    17    40    1
35    17    41    1
36    18    19    ar
37    19    24    1
38    19    20    ar
39    20    21    1
40    21    22    2
41    21    23    am
42    23    24    1
43    23    42    1
44    24    25    1
45    25    43    1
46    25    44    1
47    25    45    1
48    26    46    1
49    26    47    1
@<TRIPOS>SUBSTRUCTURE
1   ZINC000032656644 1     RESIDUE    1   A     ZIN   1
@<TRIPOS>MOLECULE
ZINC000019767095
30    32    1     0     0
SMALL
USER_CHARGES
@<TRIPOS>ATOM
1      O1      0.0021   -0.0041    0.0020 O.2      1 ZINC000019767095   -0.4400
2      C2     -0.0144    1.2098    0.0087 C.2      1 ZINC000019767095    0.5400
3      C3     -1.2260    2.0587    0.0313 C.2      1 ZINC000019767095   -0.1300
4      C4     -0.8058    3.3349    0.0326 C.2      1 ZINC000019767095   -0.1300
5      C5      0.6731    3.2978    0.0108 C.2      1 ZINC000019767095    0.5400
6      O6      1.4076    4.2645    0.0064 O.2      1 ZINC000019767095   -0.4400
7      N7      1.0659    2.0113    0.0027 N.am     1 ZINC000019767095   -0.5300
8      C8      2.3971    1.5730   -0.0177 C.ar     1 ZINC000019767095    0.1600
9      C9      3.4335    2.4967   -0.0255 C.ar     1 ZINC000019767095   -0.1600
10     C10     4.7443    2.0618   -0.0456 C.ar     1 ZINC000019767095    0.0000
11     C11     5.0248    0.7078   -0.0580 C.ar     1 ZINC000019767095   -0.6300
12     S12     6.6983    0.1568   -0.0836 S.o2     1 ZINC000019767095    2.6400
13     O13     6.6813   -1.1522   -0.6363 O.2      1 ZINC000019767095   -1.0100
14     O14     7.4630    1.2219   -0.6314 O.2      1 ZINC000019767095   -1.0100
15     N15     7.1847   -0.0066    1.4909 N.pl3    1 ZINC000019767095   -1.0500
16     C16     8.4726   -0.4313    1.7778 C.2      1 ZINC000019767095    0.3900
17     N17     9.3743   -0.7204    0.8917 N.2      1 ZINC000019767095   -0.6300
18     C18    10.5529   -1.1100    1.3442 C.2      1 ZINC000019767095    0.1000
19     C19    10.6505   -1.1516    2.6732 C.2      1 ZINC000019767095   -0.3600
20     S20     9.1062   -0.6431    3.3515 S.3      1 ZINC000019767095    0.0300
21     C21     3.9947   -0.2146   -0.0498 C.ar     1 ZINC000019767095    0.0000
22     C22     2.6820    0.2142   -0.0244 C.ar     1 ZINC000019767095   -0.1600
23     H23    -2.2508    1.7181    0.0437 H        1 ZINC000019767095    0.1900
24     H24    -1.4278    4.2177    0.0463 H        1 ZINC000019767095    0.1900
25     H25     3.2150    3.5543   -0.0161 H        1 ZINC000019767095    0.1600
26     H26     5.5509    2.7799   -0.0520 H        1 ZINC000019767095    0.1500
27     H27    11.3710   -1.3738    0.6904 H        1 ZINC000019767095    0.1500
28     H28    11.5253   -1.4424    3.2360 H        1 ZINC000019767095    0.1500
29     H29     4.2169   -1.2715   -0.0591 H        1 ZINC000019767095    0.1500
30     H30     1.8779   -0.5067   -0.0176 H        1 ZINC000019767095    0.1600
@<TRIPOS>BOND
1     1     2     2
2     2     7     am
3     2     3     1
4     3     4     2
5     3     23    1
6     4     5     1
7     4     24    1
8     5     6     2
9     5     7     am
10    7     8     1
11    8     22    ar
12    8     9     ar
13    9     10    ar
14    9     25    1
15    10    11    ar
16    10    26    1
17    11    12    1
18    11    21    ar
19    12    13    2
20    12    14    2
21    12    15    1
22    15    16    1
23    16    20    1
24    16    17    2
25    17    18    1
26    18    19    2
27    18    27    1
28    19    20    1
29    19    28    1
30    21    22    ar
31    21    29    1
32    22    30    1
@<TRIPOS>SUBSTRUCTURE
1   ZINC000019767095 1     RESIDUE    1   A     ZIN   1

@<TRIPOS>MOLECULE
ZINC000019767095
31    33    1     0     0
SMALL
USER_CHARGES
@<TRIPOS>ATOM
1      O1      0.0021   -0.0041    0.0020 O.2      1 ZINC000019767095   -0.4300
2      C2     -0.0144    1.2098    0.0087 C.2      1 ZINC000019767095    0.5400
3      C3     -1.2260    2.0587    0.0313 C.2      1 ZINC000019767095   -0.1300
4      C4     -0.8058    3.3349    0.0326 C.2      1 ZINC000019767095   -0.1300
5      C5      0.6731    3.2978    0.0108 C.2      1 ZINC000019767095    0.5400
6      O6      1.4076    4.2645    0.0064 O.2      1 ZINC000019767095   -0.4300
7      N7      1.0659    2.0113    0.0027 N.am     1 ZINC000019767095   -0.5400
8      C8      2.3971    1.5730   -0.0177 C.ar     1 ZINC000019767095    0.1900
9      C9      3.4335    2.4967   -0.0255 C.ar     1 ZINC000019767095   -0.1700
10     C10     4.7443    2.0618   -0.0456 C.ar     1 ZINC000019767095    0.0000
11     C11     5.0248    0.7078   -0.0580 C.ar     1 ZINC000019767095   -0.6900
12     S12     6.6983    0.1568   -0.0836 S.o2     1 ZINC000019767095    2.6900
13     O13     6.6813   -1.1522   -0.6363 O.2      1 ZINC000019767095   -0.9200
14     O14     7.4630    1.2219   -0.6314 O.2      1 ZINC000019767095   -0.9400
15     N15     7.1847   -0.0066    1.4909 N.am     1 ZINC000019767095   -1.0100
16     C16     6.5898   -0.9578    2.3049 C.2      1 ZINC000019767095    0.2800
17     N17     5.6509   -1.7714    1.9330 N.2      1 ZINC000019767095   -0.5200
18     C18     5.1981   -2.6162    2.8423 C.2      1 ZINC000019767095    0.0800
19     C19     5.7817   -2.5109    4.0365 C.2      1 ZINC000019767095   -0.2700
20     S20     6.9921   -1.2343    3.9434 S.3      1 ZINC000019767095    0.1500
21     C21     3.9947   -0.2146   -0.0498 C.ar     1 ZINC000019767095    0.0300
22     C22     2.6820    0.2142   -0.0244 C.ar     1 ZINC000019767095   -0.1700
23     H23    -2.2508    1.7181    0.0437 H        1 ZINC000019767095    0.1900
24     H24    -1.4278    4.2177    0.0463 H        1 ZINC000019767095    0.1900
25     H25     3.2150    3.5543   -0.0161 H        1 ZINC000019767095    0.1600
26     H26     5.5509    2.7799   -0.0520 H        1 ZINC000019767095    0.1500
27     H27     7.8860    0.5633    1.8435 H        1 ZINC000019767095    0.4400
28     H28     4.4181   -3.3339    2.6351 H        1 ZINC000019767095    0.1900
29     H29     5.5547   -3.1072    4.9079 H        1 ZINC000019767095    0.1800
30     H30     4.2169   -1.2715   -0.0591 H        1 ZINC000019767095    0.1600
31     H31     1.8779   -0.5067   -0.0176 H        1 ZINC000019767095    0.1600
@<TRIPOS>BOND
1     1     2     2
2     2     7     am
3     2     3     1
4     3     4     2
5     3     23    1
6     4     5     1
7     4     24    1
8     5     6     2
9     5     7     am
10    7     8     1
11    8     22    ar
12    8     9     ar
13    9     10    ar
14    9     25    1
15    10    11    ar
16    10    26    1
17    11    12    1
18    11    21    ar
19    12    13    2
20    12    14    2
21    12    15    am
22    15    16    1
23    15    27    1
24    16    20    1
25    16    17    2
26    17    18    1
27    18    19    2
28    18    28    1
29    19    20    1
30    19    29    1
31    21    22    ar
32    21    30    1
33    22    31    1
@<TRIPOS>SUBSTRUCTURE
1   ZINC000019767095 1     RESIDUE    1   A     ZIN   1
@<TRIPOS>MOLECULE
ZINC000036357448
  45   48    0    0    0
SMALL
USER_CHARGES
NO_NAME
@<TRIPOS>ATOM
    1 O1        0.0021    -0.0041     0.0020 O.2    1 <0>      -0.4700
    2 C2       -0.0145     1.2175     0.0087 C.2    1 <0>       0.4000
    3 C3       -1.2399     1.9292     0.0302 C.2    1 <0>      -0.3100
    4 C4       -1.2133     3.2773     0.0375 C.2    1 <0>       0.1500
    5 C5       -2.5102     4.0446     0.0608 C.3    1 <0>       0.1000
    6 N6       -2.6151     4.7906     1.3219 N.3    1 <0>      -0.5300
    7 C7       -2.2608     3.9410     2.4675 C.3    1 <0>       0.0500
    8 C8       -2.3055     4.7743     3.7504 C.3    1 <0>       0.0600
    9 N9       -3.6507     5.3425     3.9159 N.3    1 <0>      -0.5400
   10 C10      -3.7556     6.0884     5.1770 C.3    1 <0>       0.1000
   11 C11      -5.1976     6.4447     5.4314 C.ar   1 <0>      -0.0700
   12 C12      -5.7101     7.6334     4.9471 C.ar   1 <0>      -0.1000
   13 C13      -7.0326     7.9647     5.1779 C.ar   1 <0>      -0.1000
   14 C14      -7.8473     7.1052     5.8962 C.ar   1 <0>       0.0300
   15 O15      -9.1608     7.1931     6.2571 O.3    1 <0>      -0.3100
   16 C16      -9.5509     5.8546     6.6173 C.3    1 <0>       0.2100
   17 O17      -8.3208     5.2447     7.0510 O.3    1 <0>      -0.3100
   18 C18      -7.3307     5.9071     6.3844 C.ar   1 <0>       0.0300
   19 C19      -6.0068     5.5789     6.1441 C.ar   1 <0>      -0.0800
   20 C20      -4.0049     6.1921     2.7703 C.3    1 <0>       0.0500
   21 C21      -3.9603     5.3588     1.4874 C.3    1 <0>       0.0600
   22 O22      -0.0538     3.9443     0.0247 O.3    1 <0>      -0.1900
   23 C23       1.1290     3.3144     0.0043 C.2    1 <0>      -0.0200
   24 C24       1.1956     1.9650     0.0012 C.2    1 <0>      -0.0300
   25 O25       2.3999     1.3317    -0.0196 O.3    1 <0>      -0.4500
   26 H26      -2.1811     1.3996     0.0403 H      1 <0>       0.1600
   27 H27      -2.5350     4.7417    -0.7768 H      1 <0>       0.1100
   28 H28      -3.3454     3.3491    -0.0205 H      1 <0>       0.0800
   29 H29      -2.9716     3.1181     2.5434 H      1 <0>       0.0500
   30 H30      -1.2561     3.5423     2.3275 H      1 <0>       0.0800
   31 H31      -2.0713     4.1393     4.6048 H      1 <0>       0.0800
   32 H32      -1.5754     5.5811     3.6856 H      1 <0>       0.0500
   33 H33      -3.3837     5.4723     5.9956 H      1 <0>       0.0900
   34 H34      -3.1624     7.0004     5.1101 H      1 <0>       0.0500
   35 H35      -5.0761     8.3051     4.3875 H      1 <0>       0.1400
   36 H36      -7.4304     8.8942     4.7982 H      1 <0>       0.1400
   37 H37     -10.2767     5.8729     7.4303 H      1 <0>       0.1300
   38 H38      -9.9556     5.3280     5.7530 H      1 <0>       0.0900
   39 H39      -5.6053     4.6479     6.5162 H      1 <0>       0.1400
   40 H40      -5.0097     6.5908     2.9103 H      1 <0>       0.0900
   41 H41      -3.2942     7.0150     2.6944 H      1 <0>       0.0500
   42 H42      -4.1944     5.9938     0.6330 H      1 <0>       0.0900
   43 H43      -4.6903     4.5520     1.5522 H      1 <0>       0.0500
   44 H44       2.0409     3.8931    -0.0055 H      1 <0>       0.2000
   45 H45       3.1591     1.9305    -0.0312 H      1 <0>       0.4000
@<TRIPOS>BOND
   1    1    2 2
   2    2   24 1
   3    2    3 1
   4    3    4 2
   5    3   26 1
   6    4    5 1
   7    4   22 1
   8    5    6 1
   9    5   27 1
  10    5   28 1
  11    6   21 1
  12    6    7 1
  13    7    8 1
  14    7   29 1
  15    7   30 1
  16    8    9 1
  17    8   31 1
  18    8   32 1
  19    9   10 1
  20    9   20 1
  21   10   11 1
  22   10   33 1
  23   10   34 1
  24   11   19 ar
  25   11   12 ar
  26   12   13 ar
  27   12   35 1
  28   13   14 ar
  29   13   36 1
  30   14   18 ar
  31   14   15 1
  32   15   16 1
  33   16   17 1
  34   16   37 1
  35   16   38 1
  36   17   18 1
  37   18   19 ar
  38   19   39 1
  39   20   21 1
  40   20   40 1
  41   20   41 1
  42   21   42 1
  43   21   43 1
  44   22   23 1
  45   23   24 2
  46   23   44 1
  47   24   25 1
  48   25   45 1

@<TRIPOS>MOLECULE
ZINC000036357448
  46   49    0    0    0
SMALL
USER_CHARGES
NO_NAME
@<TRIPOS>ATOM
    1 O1        0.0021    -0.0041     0.0020 O.2    1 <0>      -0.4500
    2 C2       -0.0145     1.2175     0.0087 C.2    1 <0>       0.4000
    3 C3       -1.2399     1.9292     0.0302 C.2    1 <0>      -0.2900
    4 C4       -1.2133     3.2773     0.0375 C.2    1 <0>       0.1300
    5 C5       -2.5102     4.0446     0.0608 C.3    1 <0>       0.1000
    6 N6       -2.6151     4.7906     1.3219 N.3    1 <0>      -0.5300
    7 C7       -2.2631     3.9402     2.4678 C.3    1 <0>       0.0200
    8 C8       -2.3271     4.7687     3.7528 C.3    1 <0>       0.0000
    9 N9       -3.6826     5.3090     3.9202 N.4    1 <0>      -0.3900
   10 H10      -4.3443     4.5486     3.9655 H      1 <0>       0.4200
   11 C11      -3.7483     6.0896     5.1629 C.3    1 <0>       0.0500
   12 C12      -5.1667     6.5411     5.3982 C.ar   1 <0>      -0.1600
   13 C13      -5.6007     7.7478     4.8827 C.ar   1 <0>      -0.0800
   14 C14      -6.9013     8.1664     5.0958 C.ar   1 <0>      -0.1000
   15 C15      -7.7725     7.3767     5.8276 C.ar   1 <0>       0.0700
   16 O16      -9.0801     7.5549     6.1766 O.3    1 <0>      -0.3000
   17 C17      -9.5554     6.2523     6.5646 C.3    1 <0>       0.2100
   18 O18      -8.3686     5.5771     7.0215 O.3    1 <0>      -0.3000
   19 C19      -7.3350     6.1604     6.3473 C.ar   1 <0>       0.0400
   20 C20      -6.0328     5.7446     6.1246 C.ar   1 <0>      -0.0800
   21 C21      -4.0104     6.1756     2.7805 C.3    1 <0>      -0.0100
   22 C22      -3.9604     5.3588     1.4874 C.3    1 <0>       0.0300
   23 O23      -0.0538     3.9443     0.0247 O.3    1 <0>      -0.1900
   24 C24       1.1290     3.3144     0.0043 C.2    1 <0>      -0.0200
   25 C25       1.1956     1.9650     0.0012 C.2    1 <0>      -0.0200
   26 O26       2.3999     1.3317    -0.0196 O.3    1 <0>      -0.4400
   27 H27      -2.1811     1.3996     0.0403 H      1 <0>       0.1600
   28 H28      -2.5350     4.7417    -0.7768 H      1 <0>       0.1200
   29 H29      -3.3454     3.3491    -0.0205 H      1 <0>       0.0900
   30 H30      -2.9668     3.1105     2.5346 H      1 <0>       0.0700
   31 H31      -1.2534     3.5515     2.3356 H      1 <0>       0.1200
   32 H32      -2.0802     4.1363     4.6055 H      1 <0>       0.1400
   33 H33      -1.6135     5.5904     3.6912 H      1 <0>       0.1400
   34 H34      -3.4206     5.4709     5.9984 H      1 <0>       0.1400
   35 H35      -3.0987     6.9609     5.0795 H      1 <0>       0.1400
   36 H36      -4.9225     8.3652     4.3125 H      1 <0>       0.1500
   37 H37      -7.2377     9.1098     4.6917 H      1 <0>       0.1500
   38 H38     -10.2836     6.3351     7.3715 H      1 <0>       0.1400
   39 H39      -9.9871     5.7318     5.7097 H      1 <0>       0.1000
   40 H40      -5.6927     4.7994     6.5212 H      1 <0>       0.1400
   41 H41      -5.0114     6.5863     2.9124 H      1 <0>       0.1400
   42 H42      -3.2882     6.9901     2.7239 H      1 <0>       0.1400
   43 H43      -4.1890     6.0051     0.6399 H      1 <0>       0.1300
   44 H44      -4.6921     4.5525     1.5381 H      1 <0>       0.0700
   45 H45       2.0409     3.8931    -0.0055 H      1 <0>       0.2000
   46 H46       3.1591     1.9305    -0.0312 H      1 <0>       0.4000
@<TRIPOS>BOND
   1    1    2 2
   2    2   25 1
   3    2    3 1
   4    3    4 2
   5    3   27 1
   6    4    5 1
   7    4   23 1
   8    5    6 1
   9    5   28 1
  10    5   29 1
  11    6   22 1
  12    6    7 1
  13    7    8 1
  14    7   30 1
  15    7   31 1
  16    8    9 1
  17    8   32 1
  18    8   33 1
  19    9   10 1
  20    9   11 1
  21    9   21 1
  22   11   12 1
  23   11   34 1
  24   11   35 1
  25   12   20 ar
  26   12   13 ar
  27   13   14 ar
  28   13   36 1
  29   14   15 ar
  30   14   37 1
  31   15   19 ar
  32   15   16 1
  33   16   17 1
  34   17   18 1
  35   17   38 1
  36   17   39 1
  37   18   19 1
  38   19   20 ar
  39   20   40 1
  40   21   22 1
  41   21   41 1
  42   21   42 1
  43   22   43 1
  44   22   44 1
  45   23   24 1
  46   24   25 2
  47   24   45 1
  48   25   26 1
  49   26   46 1
@<TRIPOS>MOLECULE
ZINC000044244866
32    32    1     0     0
SMALL
USER_CHARGES
@<TRIPOS>ATOM
1      C1     -0.0187    1.5258    0.0104 C.3      1 ZINC000044244866   -0.1800
2      C2      0.0021   -0.0041    0.0020 C.3      1 ZINC000044244866    0.1400
3      H3      0.5123   -0.3556   -0.8948 H        1 ZINC000044244866    0.1100
4      N4     -1.3723   -0.5112    0.0124 N.am     1 ZINC000044244866   -1.1000
5      S5     -2.1195   -0.9073   -1.4113 S.o2     1 ZINC000044244866    2.7000
6      O6     -3.4098   -1.3922   -1.0660 O.2      1 ZINC000044244866   -0.9400
7      O7     -1.9110    0.1880   -2.2923 O.2      1 ZINC000044244866   -0.9400
8      C8     -1.2425   -2.2724   -2.0984 C.ar     1 ZINC000044244866   -0.7400
9      C9     -0.1760   -2.0608   -2.9513 C.ar     1 ZINC000044244866    0.2100
10     N10     0.4857   -3.0771   -3.4698 N.ar     1 ZINC000044244866   -0.4800
11     C11     0.1617   -4.3261   -3.1990 C.ar     1 ZINC000044244866    0.1900
12     C12    -0.8942   -4.6156   -2.3537 C.ar     1 ZINC000044244866   -0.1700
13     Br13   -1.3510   -6.4104   -1.9717 Br       1 ZINC000044244866   -0.0100
14     C14    -1.6101   -3.5722   -1.7854 C.ar     1 ZINC000044244866    0.0600
15     C15     0.7309   -0.5033    1.2229 C.2      1 ZINC000044244866    0.5100
16     O16     0.1587   -1.2128    2.0229 O.2      1 ZINC000044244866   -0.5200
17     N17     2.0187   -0.1613    1.4257 N.am     1 ZINC000044244866   -0.6200
18     C18     2.7273   -0.6466    2.6126 C.3      1 ZINC000044244866    0.0800
19     C19     2.7100    0.6957    0.4594 C.3      1 ZINC000044244866    0.0700
20     H20     1.0039    1.9031    0.0027 H        1 ZINC000044244866    0.0900
21     H21    -0.5459    1.8868   -0.8726 H        1 ZINC000044244866    0.0900
22     H22    -0.5289    1.8773    0.9072 H        1 ZINC000044244866    0.0700
23     H23    -1.8447   -0.6148    0.8533 H        1 ZINC000044244866    0.4300
24     H24     0.1189   -1.0513   -3.1966 H        1 ZINC000044244866    0.1800
25     H25     0.7270   -5.1324   -3.6426 H        1 ZINC000044244866    0.1800
26     H26    -2.4394   -3.7676   -1.1217 H        1 ZINC000044244866    0.1600
27     H27     3.2061   -1.5992    2.3857 H        1 ZINC000044244866    0.0600
28     H28     3.4849    0.0801    2.9060 H        1 ZINC000044244866    0.0700
29     H29     2.0181   -0.7818    3.4292 H        1 ZINC000044244866    0.0800
30     H30     2.5783    1.7405    0.7409 H        1 ZINC000044244866    0.0700
31     H31     3.7724    0.4523    0.4527 H        1 ZINC000044244866    0.0800
32     H32     2.2935    0.5320   -0.5345 H        1 ZINC000044244866    0.0800
@<TRIPOS>BOND
1     1     2     1
2     1     20    1
3     1     21    1
4     1     22    1
5     2     3     1
6     2     4     1
7     2     15    1
8     4     5     am
9     4     23    1
10    5     6     2
11    5     7     2
12    5     8     1
13    8     14    ar
14    8     9     ar
15    9     10    ar
16    9     24    1
17    10    11    ar
18    11    12    ar
19    11    25    1
20    12    13    1
21    12    14    ar
22    14    26    1
23    15    16    2
24    15    17    am
25    17    18    1
26    17    19    1
27    18    27    1
28    18    28    1
29    18    29    1
30    19    30    1
31    19    31    1
32    19    32    1
@<TRIPOS>SUBSTRUCTURE
1   ZINC000044244866 1     RESIDUE    1   A     ZIN   1

@<TRIPOS>MOLECULE
ZINC000044244866
31    31    1     0     0
SMALL
USER_CHARGES
@<TRIPOS>ATOM
1      C1     -0.0187    1.5258    0.0104 C.3      1 ZINC000044244866   -0.1900
2      C2      0.0021   -0.0041    0.0020 C.3      1 ZINC000044244866    0.1600
3      H3     -1.0205   -0.3814    0.0098 H        1 ZINC000044244866    0.0300
4      N4      0.7106   -0.4894    1.1889 N.pl3    1 ZINC000044244866   -1.1300
5      S5      0.1539   -0.1051    2.7004 S.o2     1 ZINC000044244866    2.5800
6      O6      0.3168    1.2993    2.8430 O.2      1 ZINC000044244866   -1.0400
7      O7     -1.0984   -0.7610    2.8455 O.2      1 ZINC000044244866   -1.0500
8      C8      1.2451   -0.8534    3.8640 C.ar     1 ZINC000044244866   -0.6500
9      C9      1.0068   -2.1349    4.3228 C.ar     1 ZINC000044244866    0.2000
10     N10     1.8187   -2.7020    5.1936 N.ar     1 ZINC000044244866   -0.4900
11     C11     2.8824   -2.0773    5.6591 C.ar     1 ZINC000044244866    0.1600
12     C12     3.1853   -0.7925    5.2457 C.ar     1 ZINC000044244866   -0.1700
13     Br13    4.7131    0.0951    5.9192 Br       1 ZINC000044244866   -0.0400
14     C14     2.3569   -0.1658    4.3263 C.ar     1 ZINC000044244866    0.0500
15     C15     0.7074   -0.4901   -1.2379 C.2      1 ZINC000044244866    0.5400
16     O16     1.7039   -1.1744   -1.1398 O.2      1 ZINC000044244866   -0.5100
17     N17     0.2309   -0.1642   -2.4557 N.am     1 ZINC000044244866   -0.6400
18     C18     0.9167   -0.6367   -3.6611 C.3      1 ZINC000044244866    0.1000
19     C19    -0.9727    0.6625   -2.5742 C.3      1 ZINC000044244866    0.0800
20     H20     1.0039    1.9031    0.0027 H        1 ZINC000044244866    0.0600
21     H21    -0.5459    1.8868   -0.8726 H        1 ZINC000044244866    0.0500
22     H22    -0.5289    1.8773    0.9072 H        1 ZINC000044244866    0.0600
23     H23     0.1452   -2.6783    3.9642 H        1 ZINC000044244866    0.1800
24     H24     3.5243   -2.5742    6.3715 H        1 ZINC000044244866    0.1600
25     H25     2.5682    0.8369    3.9852 H        1 ZINC000044244866    0.1600
26     H26     0.9314   -1.7265   -3.6671 H        1 ZINC000044244866    0.0500
27     H27     0.3895   -0.2756   -4.5441 H        1 ZINC000044244866    0.0600
28     H28     1.9393   -0.2594   -3.6688 H        1 ZINC000044244866    0.0500
29     H29    -0.6894    1.7146   -2.6046 H        1 ZINC000044244866    0.0500
30     H30    -1.5033    0.4025   -3.4902 H        1 ZINC000044244866    0.0600
31     H31    -1.6210    0.4854   -1.7161 H        1 ZINC000044244866    0.0800
@<TRIPOS>BOND
1     1     2     1
2     1     20    1
3     1     21    1
4     1     22    1
5     2     3     1
6     2     4     1
7     2     15    1
8     4     5     1
9     5     6     2
10    5     7     2
11    5     8     1
12    8     14    ar
13    8     9     ar
14    9     10    ar
15    9     23    1
16    10    11    ar
17    11    12    ar
18    11    24    1
19    12    13    1
20    12    14    ar
21    14    25    1
22    15    16    2
23    15    17    am
24    17    18    1
25    17    19    1
26    18    26    1
27    18    27    1
28    18    28    1
29    19    29    1
30    19    30    1
31    19    31    1
@<TRIPOS>SUBSTRUCTURE
1   ZINC000044244866 1     RESIDUE    1   A     ZIN   1
@<TRIPOS>MOLECULE
ZINC000049029141
  39   41    0    0    0
SMALL
USER_CHARGES
NO_NAME
@<TRIPOS>ATOM
    1 C1       -0.0225     1.8097     0.0120 C.3    1 <0>      -0.6700
    2 S2        0.0021    -0.0041     0.0020 S.o2   1 <0>       2.6100
    3 O3        0.8448    -0.4970     1.0346 O.2    1 <0>      -0.9500
    4 O4       -1.3093    -0.5195    -0.1821 O.2    1 <0>      -0.9500
    5 N5        0.7961    -0.3989    -1.3965 N.am   1 <0>      -1.0000
    6 C6        0.0550    -0.5829    -2.6518 C.3    1 <0>       0.1200
    7 C7        0.6756     0.3146    -3.7270 C.3    1 <0>      -0.1200
    8 C8        2.1732     0.0171    -3.8319 C.3    1 <0>      -0.0900
    9 C9        2.7808     0.8741    -4.9124 C.2    1 <0>       0.5200
   10 O10       2.0848     1.6465    -5.5369 O.2    1 <0>      -0.4600
   11 N11       4.0975     0.7823    -5.1847 N.am   1 <0>      -0.6200
   12 C12       4.6569     1.5713    -6.1794 C.2    1 <0>       0.3800
   13 N13       4.0247     2.4456    -6.9217 N.2    1 <0>      -0.2600
   14 N14       4.8533     2.9936    -7.7391 N.2    1 <0>      -0.2500
   15 C15       6.0493     2.4892    -7.5501 C.2    1 <0>       0.2200
   16 C16       7.2780     2.8512    -8.2856 C.2    1 <0>      -0.0300
   17 C17       8.4748     2.2814    -8.0355 C.2    1 <0>      -0.1800
   18 S18       9.6881     2.9684    -9.1069 S.3    1 <0>       0.1600
   19 C19       8.4889     4.0139    -9.8547 C.2    1 <0>      -0.2100
   20 C20       7.2974     3.8077    -9.3021 C.2    1 <0>      -0.1000
   21 O21       5.9508     1.5821    -6.5545 O.3    1 <0>      -0.2300
   22 C22       2.8511     0.3255    -2.4949 C.3    1 <0>      -0.1300
   23 C23       2.2558    -0.5658    -1.4070 C.3    1 <0>       0.1200
   24 H24       1.0001     2.1870     0.0043 H      1 <0>       0.1300
   25 H25      -0.5497     2.1708    -0.8711 H      1 <0>       0.1300
   26 H26      -0.5327     2.1613     0.9088 H      1 <0>       0.1300
   27 H27       0.1188    -1.6252    -2.9643 H      1 <0>       0.0800
   28 H28      -0.9890    -0.3070    -2.5035 H      1 <0>       0.1000
   29 H29       0.1974     0.1169    -4.6863 H      1 <0>       0.0900
   30 H30       0.5305     1.3604    -3.4562 H      1 <0>       0.0800
   31 H31       2.3181    -1.0347    -4.0782 H      1 <0>       0.1100
   32 H32       4.6542     0.1645    -4.6852 H      1 <0>       0.4300
   33 H33       8.6594     1.5208    -7.2913 H      1 <0>       0.1700
   34 H34       8.6896     4.7172   -10.6493 H      1 <0>       0.1800
   35 H35       6.4130     4.3451    -9.6109 H      1 <0>       0.1600
   36 H36       3.9213     0.1358    -2.5774 H      1 <0>       0.0800
   37 H37       2.6855     1.3712    -2.2357 H      1 <0>       0.0800
   38 H38       2.6644    -0.2814    -0.4374 H      1 <0>       0.1000
   39 H39       2.4970    -1.6081    -1.6160 H      1 <0>       0.0800
@<TRIPOS>BOND
   1    1    2 1
   2    1   24 1
   3    1   25 1
   4    1   26 1
   5    2    3 2
   6    2    4 2
   7    2    5 am
   8    5   23 1
   9    5    6 1
  10    6    7 1
  11    6   27 1
  12    6   28 1
  13    7    8 1
  14    7   29 1
  15    7   30 1
  16    8    9 1
  17    8   22 1
  18    8   31 1
  19    9   10 2
  20    9   11 am
  21   11   12 1
  22   11   32 1
  23   12   21 1
  24   12   13 2
  25   13   14 1
  26   14   15 2
  27   15   16 1
  28   15   21 1
  29   16   20 1
  30   16   17 2
  31   17   18 1
  32   17   33 1
  33   18   19 1
  34   19   20 2
  35   19   34 1
  36   20   35 1
  37   22   23 1
  38   22   36 1
  39   22   37 1
  40   23   38 1
  41   23   39 1
@<TRIPOS>MOLECULE
ZINC000062640094
39    40    1     0     0
SMALL
USER_CHARGES
@<TRIPOS>ATOM
1      C1      2.8031   -0.2280    5.0782 C.3      1 ZINC000062640094   -0.0800
2      C2      2.4462   -1.4521    4.2751 C.2      1 ZINC000062640094    0.0700
3      C3      3.2496   -2.5161    4.1832 C.2      1 ZINC000062640094   -0.2500
4      S4      2.4552   -3.7086    3.1578 S.3      1 ZINC000062640094    0.1600
5      C5      1.1217   -2.6579    2.9544 C.2      1 ZINC000062640094    0.0000
6      C6     -0.1034   -2.9678    2.1334 C.3      1 ZINC000062640094    0.2000
7      O7     -1.2705   -2.8180    2.9441 O.3      1 ZINC000062640094   -0.5200
8      C8     -0.0215   -4.4061    1.6181 C.3      1 ZINC000062640094   -0.1900
9      C9     -0.0046   -5.3580    2.7863 C.2      1 ZINC000062640094    0.5300
10     O10    -0.0408   -4.9278    3.9197 O.2      1 ZINC000062640094   -0.5300
11     N11     0.0506   -6.6874    2.5716 N.am     1 ZINC000062640094   -0.6100
12     C12     0.1014   -7.2327    1.2058 C.3      1 ZINC000062640094    0.0600
13     C13     1.2655   -8.2269    1.1250 C.3      1 ZINC000062640094    0.0500
14     O14     1.1456   -9.1790    2.1847 O.3      1 ZINC000062640094   -0.3700
15     C15     1.2283   -8.6110    3.4940 C.3      1 ZINC000062640094    0.0700
16     H16     2.1723   -8.0764    3.5999 H        1 ZINC000062640094    0.0700
17     C17     1.1518   -9.7250    4.5401 C.3      1 ZINC000062640094   -0.1500
18     C18     0.0681   -7.6363    3.6962 C.3      1 ZINC000062640094    0.0800
19     C19    -0.1794   -2.0047    0.9471 C.3      1 ZINC000062640094    0.4800
20     F20     0.9946   -2.1009    0.1923 F        1 ZINC000062640094   -0.1700
21     F21    -1.2773   -2.3370    0.1462 F        1 ZINC000062640094   -0.1700
22     F22    -0.3249   -0.6954    1.4180 F        1 ZINC000062640094   -0.1500
23     N23     1.3138   -1.5634    3.6103 N.2      1 ZINC000062640094   -0.4300
24     H24     2.4435   -0.3464    6.1003 H        1 ZINC000062640094    0.0800
25     H25     3.8858   -0.1017    5.0863 H        1 ZINC000062640094    0.0800
26     H26     2.3384    0.6496    4.6288 H        1 ZINC000062640094    0.0800
27     H27     4.2152   -2.6257    4.6544 H        1 ZINC000062640094    0.1800
28     H28    -1.2901   -3.3994    3.7166 H        1 ZINC000062640094    0.4100
29     H29    -0.8871   -4.6169    0.9901 H        1 ZINC000062640094    0.1400
30     H30     0.8903   -4.5315    1.0341 H        1 ZINC000062640094    0.1200
31     H31    -0.8343   -7.7438    0.9795 H        1 ZINC000062640094    0.0900
32     H32     0.2598   -6.4233    0.4931 H        1 ZINC000062640094    0.1000
33     H33     1.2367   -8.7440    0.1659 H        1 ZINC000062640094    0.1100
34     H34     2.2095   -7.6908    1.2224 H        1 ZINC000062640094    0.0600
35     H35     1.9791  -10.4193    4.3926 H        1 ZINC000062640094    0.0700
36     H36     1.2150   -9.2912    5.5380 H        1 ZINC000062640094    0.0800
37     H37     0.2069  -10.2581    4.4347 H        1 ZINC000062640094    0.0700
38     H38     0.2021   -7.0953    4.6329 H        1 ZINC000062640094    0.1100
39     H39    -0.8730   -8.1858    3.7204 H        1 ZINC000062640094    0.0800
@<TRIPOS>BOND
1     1     2     1
2     1     24    1
3     1     25    1
4     1     26    1
5     2     23    1
6     2     3     2
7     3     4     1
8     3     27    1
9     4     5     1
10    5     6     1
11    5     23    2
12    6     7     1
13    6     8     1
14    6     19    1
15    7     28    1
16    8     9     1
17    8     29    1
18    8     30    1
19    9     10    2
20    9     11    am
21    11    18    1
22    11    12    1
23    12    13    1
24    12    31    1
25    12    32    1
26    13    14    1
27    13    33    1
28    13    34    1
29    14    15    1
30    15    16    1
31    15    17    1
32    15    18    1
33    17    35    1
34    17    36    1
35    17    37    1
36    18    38    1
37    18    39    1
38    19    20    1
39    19    21    1
40    19    22    1
@<TRIPOS>SUBSTRUCTURE
1   ZINC000062640094 1     RESIDUE    1   A     ZIN   1
@<TRIPOS>MOLECULE
ZINC000065246977
35    37    1     0     0
SMALL
USER_CHARGES
@<TRIPOS>ATOM
1      C1     -0.0184    1.5028    0.0103 C.3      1 ZINC000065246977   -0.1000
2      C2      0.0021   -0.0041    0.0020 C.2      1 ZINC000065246977    0.3200
3      N3      0.0051   -0.6250   -1.1273 N.2      1 ZINC000065246977   -0.2700
4      N4      0.0237   -2.0204   -1.2131 N.am     1 ZINC000065246977   -0.4500
5      C5      0.0267   -2.6745   -2.5239 C.3      1 ZINC000065246977    0.1100
6      C6      0.0392   -2.7656   -0.0846 C.2      1 ZINC000065246977    0.5700
7      O7      0.0559   -3.9826   -0.1365 O.2      1 ZINC000065246977   -0.5100
8      C8      0.0359   -2.0655    1.2021 C.2      1 ZINC000065246977   -0.0900
9      C9      0.0479   -2.4899    2.5101 C.2      1 ZINC000065246977    0.0100
10     C10     0.0361   -1.3440    3.3119 C.2      1 ZINC000065246977   -0.6700
11     S11     0.0450   -1.3121    5.0736 S.o2     1 ZINC000065246977    2.6300
12     O12    -0.5144   -0.0628    5.4551 O.2      1 ZINC000065246977   -1.0300
13     O13    -0.4803   -2.5616    5.5002 O.2      1 ZINC000065246977   -1.0200
14     N14     1.6291   -1.2817    5.5553 N.pl3    1 ZINC000065246977   -1.0900
15     C15     1.9453   -1.2528    6.9170 C.ar     1 ZINC000065246977    0.2700
16     C16     0.9317   -1.2552    7.8665 C.ar     1 ZINC000065246977   -0.2400
17     C17     1.2464   -1.2266    9.2111 C.ar     1 ZINC000065246977   -0.0900
18     C18     2.5711   -1.1950    9.6126 C.ar     1 ZINC000065246977   -0.0200
19     F19     2.8766   -1.1666   10.9283 F        1 ZINC000065246977   -0.1700
20     C20     3.5833   -1.1930    8.6678 C.ar     1 ZINC000065246977   -0.1100
21     C21     3.2734   -1.2274    7.3222 C.ar     1 ZINC000065246977   -0.1600
22     C22     0.0175   -0.2623    2.4951 C.2      1 ZINC000065246977    0.1500
23     N23     0.0227   -0.6829    1.2055 N.pl3    1 ZINC000065246977   -0.4100
24     H24     1.0042    1.8801    0.0026 H        1 ZINC000065246977    0.1000
25     H25    -0.5455    1.8639   -0.8728 H        1 ZINC000065246977    0.1000
26     H26    -0.5286    1.8543    0.9071 H        1 ZINC000065246977    0.1000
27     H27     0.0130   -1.9174   -3.3079 H        1 ZINC000065246977    0.0900
28     H28     0.9246   -3.2844   -2.6236 H        1 ZINC000065246977    0.0700
29     H29    -0.8551   -3.3086   -2.6157 H        1 ZINC000065246977    0.0700
30     H30     0.0630   -3.5139    2.8531 H        1 ZINC000065246977    0.1700
31     H31    -0.1017   -1.2791    7.5537 H        1 ZINC000065246977    0.1100
32     H32     0.4585   -1.2284    9.9498 H        1 ZINC000065246977    0.1100
33     H33     4.6159   -1.1687    8.9832 H        1 ZINC000065246977    0.1200
34     H34     4.0631   -1.2262    6.5855 H        1 ZINC000065246977    0.1200
35     H35     0.0050    0.7680    2.8188 H        1 ZINC000065246977    0.2000
@<TRIPOS>BOND
1     1     2     1
2     1     24    1
3     1     25    1
4     1     26    1
5     2     23    1
6     2     3     2
7     3     4     1
8     4     5     1
9     4     6     am
10    5     27    1
11    5     28    1
12    5     29    1
13    6     7     2
14    6     8     1
15    8     23    1
16    8     9     2
17    9     10    1
18    9     30    1
19    10    11    1
20    10    22    2
21    11    12    2
22    11    13    2
23    11    14    1
24    14    15    1
25    15    21    ar
26    15    16    ar
27    16    17    ar
28    16    31    1
29    17    18    ar
30    17    32    1
31    18    19    1
32    18    20    ar
33    20    21    ar
34    20    33    1
35    21    34    1
36    22    23    1
37    22    35    1
@<TRIPOS>SUBSTRUCTURE
1   ZINC000065246977 1     RESIDUE    1   A     ZIN   1

@<TRIPOS>MOLECULE
ZINC000065246977
36    38    1     0     0
SMALL
USER_CHARGES
@<TRIPOS>ATOM
1      C1      3.0254    3.5147    1.6354 C.3      1 ZINC000065246977   -0.1000
2      C2      2.9927    2.1476    1.0021 C.2      1 ZINC000065246977    0.3100
3      N3      3.5284    1.9809   -0.1580 N.2      1 ZINC000065246977   -0.2500
4      N4      3.5361    0.7423   -0.8069 N.am     1 ZINC000065246977   -0.4500
5      C5      4.1600    0.6092   -2.1257 C.3      1 ZINC000065246977    0.1100
6      C6      2.9675   -0.3327   -0.2153 C.2      1 ZINC000065246977    0.5600
7      O7      2.9634   -1.4211   -0.7627 O.2      1 ZINC000065246977   -0.4900
8      C8      2.3570   -0.1494    1.1035 C.2      1 ZINC000065246977   -0.0700
9      C9      1.7086   -0.9961    1.9718 C.2      1 ZINC000065246977    0.0100
10     C10     1.3454   -0.2367    3.0887 C.2      1 ZINC000065246977   -0.7400
11     S11     0.4876   -0.8284    4.5095 S.o2     1 ZINC000065246977    2.7200
12     O12    -0.0829    0.3115    5.1374 O.2      1 ZINC000065246977   -0.9500
13     O13    -0.2799   -1.9442    4.0790 O.2      1 ZINC000065246977   -0.9400
14     N14     1.6249   -1.4197    5.5579 N.am     1 ZINC000065246977   -1.0600
15     C15     2.3906   -2.5344    5.2028 C.ar     1 ZINC000065246977    0.1100
16     C16     1.8237   -3.8021    5.2217 C.ar     1 ZINC000065246977   -0.0700
17     C17     2.5820   -4.9018    4.8706 C.ar     1 ZINC000065246977   -0.1400
18     C18     3.9065   -4.7412    4.5004 C.ar     1 ZINC000065246977    0.1100
19     F19     4.6465   -5.8184    4.1578 F        1 ZINC000065246977   -0.1300
20     C20     4.4737   -3.4782    4.4804 C.ar     1 ZINC000065246977   -0.1500
21     C21     3.7175   -2.3750    4.8252 C.ar     1 ZINC000065246977   -0.0800
22     C22     1.7702    1.0346    2.8861 C.2      1 ZINC000065246977    0.1700
23     N23     2.3940    1.1051    1.6836 N.pl3    1 ZINC000065246977   -0.4000
24     H24     3.9324    3.6176    2.2311 H        1 ZINC000065246977    0.1000
25     H25     3.0144    4.2765    0.8559 H        1 ZINC000065246977    0.1100
26     H26     2.1532    3.6389    2.2771 H        1 ZINC000065246977    0.1000
27     H27     4.5612    1.5738   -2.4369 H        1 ZINC000065246977    0.1000
28     H28     4.9679   -0.1205   -2.0734 H        1 ZINC000065246977    0.0800
29     H29     3.4150    0.2754   -2.8480 H        1 ZINC000065246977    0.0800
30     H30     1.5158   -2.0478    1.8197 H        1 ZINC000065246977    0.1700
31     H31     1.7600   -0.9926    6.4183 H        1 ZINC000065246977    0.4300
32     H32     0.7908   -3.9279    5.5111 H        1 ZINC000065246977    0.1500
33     H33     2.1415   -5.8878    4.8852 H        1 ZINC000065246977    0.1500
34     H34     5.5069   -3.3552    4.1910 H        1 ZINC000065246977    0.1400
35     H35     4.1602   -1.3900    4.8092 H        1 ZINC000065246977    0.1400
36     H36     1.6374    1.8574    3.5730 H        1 ZINC000065246977    0.2000
@<TRIPOS>BOND
1     1     2     1
2     1     24    1
3     1     25    1
4     1     26    1
5     2     23    1
6     2     3     2
7     3     4     1
8     4     5     1
9     4     6     am
10    5     27    1
11    5     28    1
12    5     29    1
13    6     7     2
14    6     8     1
15    8     23    1
16    8     9     2
17    9     10    1
18    9     30    1
19    10    11    1
20    10    22    2
21    11    12    2
22    11    13    2
23    11    14    am
24    14    15    1
25    14    31    1
26    15    21    ar
27    15    16    ar
28    16    17    ar
29    16    32    1
30    17    18    ar
31    17    33    1
32    18    19    1
33    18    20    ar
34    20    21    ar
35    20    34    1
36    21    35    1
37    22    23    1
38    22    36    1
@<TRIPOS>SUBSTRUCTURE
1   ZINC000065246977 1     RESIDUE    1   A     ZIN   1
@<TRIPOS>MOLECULE
ZINC000065380370
  52   55    0    0    0
SMALL
USER_CHARGES
NO_NAME
@<TRIPOS>ATOM
    1 C1        0.0242     1.5052     0.0111 C.3    1 <0>      -0.1000
    2 C2        0.0037    -0.0017     0.0033 C.ar   1 <0>       0.3500
    3 N3       -0.0281    -0.6339    -1.1547 N.ar   1 <0>      -0.5100
    4 C4       -0.0476    -1.9580    -1.1930 C.ar   1 <0>       0.1700
    5 C5       -0.0347    -2.6679    -0.0211 C.ar   1 <0>      -0.2300
    6 C6       -0.0600    -4.1802    -0.0492 C.3    1 <0>      -0.0800
    7 C7        1.2839    -4.6683    -0.6033 C.3    1 <0>      -0.0100
    8 N8        1.2691    -4.6929    -2.0547 N.4    1 <0>      -0.3800
    9 H9        0.4491    -5.1994    -2.3534 H      1 <0>       0.4200
   10 C10       2.4539    -5.4300    -2.5139 C.3    1 <0>      -0.0500
   11 C11       1.2645    -3.3962    -2.7072 C.3    1 <0>      -0.0100
   12 C12      -0.0825    -2.6897    -2.5178 C.3    1 <0>      -0.0900
   13 C13       0.0000    -1.9774     1.1889 C.ar   1 <0>       0.4500
   14 N14       0.0153    -2.6571     2.3960 N.pl3  1 <0>      -0.6600
   15 C15       1.2820    -3.1297     2.9722 C.3    1 <0>       0.1300
   16 C16       1.4148    -2.5663     4.3925 C.3    1 <0>       0.1000
   17 N17       0.1647    -2.8271     5.1199 N.pl3  1 <0>      -0.6000
   18 C18       0.1801    -3.5052     6.3259 C.2    1 <0>       0.2400
   19 C19       1.3814    -3.8264     6.9303 C.2    1 <0>      -0.3100
   20 C20       1.3661    -4.5136     8.1516 C.2    1 <0>       0.5200
   21 O21       2.4148    -4.8077     8.7044 O.2    1 <0>      -0.5500
   22 N22       0.1873    -4.8475     8.7127 N.am   1 <0>      -0.5300
   23 N23      -1.0182    -4.5145     8.0863 N.2    1 <0>      -0.1800
   24 C24      -1.0307    -3.8702     6.9534 C.2    1 <0>       0.0500
   25 C25      -1.1019    -2.3545     4.5437 C.3    1 <0>       0.0900
   26 C26      -1.2341    -2.9130     3.1262 C.3    1 <0>       0.1300
   27 N27       0.0234    -0.6456     1.1529 N.ar   1 <0>      -0.5200
   28 H28       1.0564     1.8546    -0.0124 H      1 <0>       0.0900
   29 H29      -0.5064     1.8803    -0.8640 H      1 <0>       0.0900
   30 H30      -0.4626     1.8705     0.9154 H      1 <0>       0.0900
   31 H31      -0.2035    -4.5649     0.9605 H      1 <0>       0.1300
   32 H32      -0.8700    -4.5230    -0.6930 H      1 <0>       0.1000
   33 H33       2.0751    -3.9994    -0.2646 H      1 <0>       0.1200
   34 H34       1.4815    -5.6732    -0.2301 H      1 <0>       0.1400
   35 H35       2.4238    -6.4466    -2.1219 H      1 <0>       0.1300
   36 H36       2.4629    -5.4609    -3.6035 H      1 <0>       0.1300
   37 H37       3.3540    -4.9295    -2.1572 H      1 <0>       0.1200
   38 H38       2.0554    -2.7786    -2.2815 H      1 <0>       0.1300
   39 H39       1.4512    -3.5310    -3.7726 H      1 <0>       0.1500
   40 H40      -0.8865    -3.4257    -2.5107 H      1 <0>       0.1100
   41 H41      -0.2418    -1.9776    -3.3276 H      1 <0>       0.1400
   42 H42       1.2831    -4.2191     3.0092 H      1 <0>       0.0700
   43 H43       2.1145    -2.7812     2.3611 H      1 <0>       0.0800
   44 H44       2.2443    -3.0547     4.9037 H      1 <0>       0.1000
   45 H45       1.5928    -1.4920     4.3447 H      1 <0>       0.0800
   46 H46       2.3180    -3.5520     6.4677 H      1 <0>       0.1500
   47 H47       0.1746    -5.3232     9.5580 H      1 <0>       0.4400
   48 H48      -1.9729    -3.6227     6.4870 H      1 <0>       0.1900
   49 H49      -1.9345    -2.7031     5.1549 H      1 <0>       0.1000
   50 H50      -1.1030    -1.2651     4.5067 H      1 <0>       0.0800
   51 H51      -2.0639    -2.4238     2.6161 H      1 <0>       0.0900
   52 H52      -1.4116    -3.9875     3.1715 H      1 <0>       0.0700
@<TRIPOS>BOND
   1    1    2 1
   2    1   28 1
   3    1   29 1
   4    1   30 1
   5    2   27 ar
   6    2    3 ar
   7    3    4 ar
   8    4   12 1
   9    4    5 ar
  10    5    6 1
  11    5   13 ar
  12    6    7 1
  13    6   31 1
  14    6   32 1
  15    7    8 1
  16    7   33 1
  17    7   34 1
  18    8    9 1
  19    8   10 1
  20    8   11 1
  21   10   35 1
  22   10   36 1
  23   10   37 1
  24   11   12 1
  25   11   38 1
  26   11   39 1
  27   12   40 1
  28   12   41 1
  29   13   14 1
  30   13   27 ar
  31   14   26 1
  32   14   15 1
  33   15   16 1
  34   15   42 1
  35   15   43 1
  36   16   17 1
  37   16   44 1
  38   16   45 1
  39   17   18 1
  40   17   25 1
  41   18   24 1
  42   18   19 2
  43   19   20 1
  44   19   46 1
  45   20   21 2
  46   20   22 am
  47   22   23 1
  48   22   47 1
  49   23   24 2
  50   24   48 1
  51   25   26 1
  52   25   49 1
  53   25   50 1
  54   26   51 1
  55   26   52 1

@<TRIPOS>MOLECULE
ZINC000065380370
  52   55    0    0    0
SMALL
USER_CHARGES
NO_NAME
@<TRIPOS>ATOM
    1 C1        0.0267     1.5052     0.0111 C.3    1 <0>      -0.1000
    2 C2        0.0048    -0.0017     0.0033 C.ar   1 <0>       0.3500
    3 N3       -0.0282    -0.6339    -1.1547 N.ar   1 <0>      -0.5100
    4 C4       -0.0472    -1.9579    -1.1930 C.ar   1 <0>       0.1700
    5 C5       -0.0323    -2.6679    -0.0212 C.ar   1 <0>      -0.2300
    6 C6       -0.0505    -4.1803    -0.0495 C.3    1 <0>      -0.0800
    7 C7       -1.4288    -4.6303    -0.5483 C.3    1 <0>      -0.0100
    8 N8       -1.4736    -4.6545    -1.9991 N.4    1 <0>      -0.3800
    9 H9       -0.6809    -5.1836    -2.3305 H      1 <0>       0.4200
   10 C10      -2.6962    -5.3580    -2.4094 C.3    1 <0>      -0.0500
   11 C11      -1.4593    -3.3581    -2.6519 C.3    1 <0>      -0.0100
   12 C12      -0.0865    -2.6896    -2.5178 C.3    1 <0>      -0.0900
   13 C13       0.0014    -1.9774     1.1889 C.ar   1 <0>       0.4500
   14 N14       0.0161    -2.6571     2.3960 N.pl3  1 <0>      -0.6600
   15 C15       1.2826    -3.1284     2.9736 C.3    1 <0>       0.1300
   16 C16       1.4131    -2.5648     4.3941 C.3    1 <0>       0.1000
   17 N17       0.1625    -2.8270     5.1201 N.pl3  1 <0>      -0.6000
   18 C18       0.1772    -3.5051     6.3261 C.2    1 <0>       0.2400
   19 C19       1.3781    -3.8249     6.9318 C.2    1 <0>      -0.3000
   20 C20       1.3621    -4.5122     8.1532 C.2    1 <0>       0.5200
   21 O21       2.4106    -4.8051     8.7072 O.2    1 <0>      -0.5500
   22 N22       0.1830    -4.8475     8.7128 N.am   1 <0>      -0.5300
   23 N23      -1.0221    -4.5159     8.0850 N.2    1 <0>      -0.1800
   24 C24      -1.0340    -3.8715     6.9521 C.2    1 <0>       0.0500
   25 C25      -1.1040    -2.3558     4.5424 C.3    1 <0>       0.0900
   26 C26      -1.2339    -2.9144     3.1247 C.3    1 <0>       0.1300
   27 N27       0.0245    -0.6456     1.1529 N.ar   1 <0>      -0.5200
   28 H28       1.0592     1.8536    -0.0130 H      1 <0>       0.1000
   29 H29      -0.5040     1.8808    -0.8638 H      1 <0>       0.0900
   30 H30      -0.4592     1.8709     0.9156 H      1 <0>       0.0900
   31 H31       0.7229    -4.5452    -0.7254 H      1 <0>       0.1000
   32 H32       0.1231    -4.5695     0.9538 H      1 <0>       0.1300
   33 H33      -1.6391    -5.6295    -0.1668 H      1 <0>       0.1400
   34 H34      -2.1866    -3.9398    -0.1781 H      1 <0>       0.1300
   35 H35      -3.5668    -4.8327    -2.0167 H      1 <0>       0.1200
   36 H36      -2.7503    -5.3879    -3.4977 H      1 <0>       0.1300
   37 H37      -2.6787    -6.3753    -2.0184 H      1 <0>       0.1300
   38 H38      -1.6928    -3.4870    -3.7087 H      1 <0>       0.1500
   39 H39      -2.2147    -2.7189    -2.1948 H      1 <0>       0.1300
   40 H40       0.0595    -1.9818    -3.3337 H      1 <0>       0.1400
   41 H41       0.6962    -3.4478    -2.5429 H      1 <0>       0.1100
   42 H42       1.2848    -4.2177     3.0107 H      1 <0>       0.0700
   43 H43       2.1154    -2.7789     2.3635 H      1 <0>       0.0800
   44 H44       2.2426    -3.0523     4.9063 H      1 <0>       0.1000
   45 H45       1.5900    -1.4903     4.3465 H      1 <0>       0.0800
   46 H46       2.3150    -3.5495     6.4704 H      1 <0>       0.1500
   47 H47       0.1699    -5.3232     9.5581 H      1 <0>       0.4400
   48 H48      -1.9759    -3.6251     6.4846 H      1 <0>       0.1900
   49 H49      -1.9369    -2.7053     5.1525 H      1 <0>       0.1000
   50 H50      -1.1063    -1.2664     4.5054 H      1 <0>       0.0800
   51 H51      -2.0637    -2.4261     2.6137 H      1 <0>       0.0800
   52 H52      -1.4103    -3.9891     3.1697 H      1 <0>       0.0700
@<TRIPOS>BOND
   1    1    2 1
   2    1   28 1
   3    1   29 1
   4    1   30 1
   5    2   27 ar
   6    2    3 ar
   7    3    4 ar
   8    4   12 1
   9    4    5 ar
  10    5    6 1
  11    5   13 ar
  12    6    7 1
  13    6   31 1
  14    6   32 1
  15    7    8 1
  16    7   33 1
  17    7   34 1
  18    8    9 1
  19    8   10 1
  20    8   11 1
  21   10   35 1
  22   10   36 1
  23   10   37 1
  24   11   12 1
  25   11   38 1
  26   11   39 1
  27   12   40 1
  28   12   41 1
  29   13   14 1
  30   13   27 ar
  31   14   26 1
  32   14   15 1
  33   15   16 1
  34   15   42 1
  35   15   43 1
  36   16   17 1
  37   16   44 1
  38   16   45 1
  39   17   18 1
  40   17   25 1
  41   18   24 1
  42   18   19 2
  43   19   20 1
  44   19   46 1
  45   20   21 2
  46   20   22 am
  47   22   23 1
  48   22   47 1
  49   23   24 2
  50   24   48 1
  51   25   26 1
  52   25   49 1
  53   25   50 1
  54   26   51 1
  55   26   52 1

@<TRIPOS>MOLECULE
ZINC000065380370
  51   54    0    0    0
SMALL
USER_CHARGES
NO_NAME
@<TRIPOS>ATOM
    1 C1        0.0206     1.7257     0.1311 C.3    1 <0>      -0.0900
    2 C2        0.0352     0.2192     0.1684 C.ar   1 <0>       0.3300
    3 N3       -0.0572    -0.4508    -0.9605 N.ar   1 <0>      -0.5200
    4 C4       -0.0604    -1.7816    -0.9743 C.ar   1 <0>       0.1800
    5 C5        0.0228    -2.4615     0.2141 C.ar   1 <0>      -0.1800
    6 C6       -0.0278    -3.9630     0.3127 C.3    1 <0>      -0.1000
    7 C7        0.5360    -4.6169    -0.9494 C.3    1 <0>       0.0500
    8 N8       -0.5670    -4.8367    -1.8938 N.3    1 <0>      -0.5400
    9 C9       -1.5534    -5.7750    -1.3420 C.3    1 <0>       0.0200
   10 C10      -1.2021    -3.5756    -2.2815 C.3    1 <0>       0.0600
   11 C11      -0.1227    -2.4887    -2.3010 C.3    1 <0>      -0.0900
   12 C12       0.1407    -1.7196     1.3971 C.ar   1 <0>       0.4300
   13 N13       0.2562    -2.3612     2.6195 N.pl3  1 <0>      -0.6600
   14 C14       1.5781    -2.6123     3.2105 C.3    1 <0>       0.1400
   15 C15       1.6094    -2.0035     4.6179 C.3    1 <0>       0.1000
   16 N16       0.4122    -2.4447     5.3471 N.pl3  1 <0>      -0.5900
   17 C17       0.5274    -3.0846     6.5685 C.2    1 <0>       0.2400
   18 C18       1.7596    -3.1916     7.1863 C.2    1 <0>      -0.3100
   19 C19       1.8459    -3.8453     8.4230 C.2    1 <0>       0.5300
   20 O20       2.9237    -3.9517     8.9879 O.2    1 <0>      -0.5500
   21 N21       0.7326    -4.3554     8.9854 N.am   1 <0>      -0.5300
   22 N22      -0.5054    -4.2378     8.3452 N.2    1 <0>      -0.1900
   23 C23      -0.6130    -3.6291     7.1978 C.2    1 <0>       0.0600
   24 C24      -0.9098    -2.1936     4.7561 C.3    1 <0>       0.1000
   25 C25      -0.9413    -2.7974     3.3514 C.3    1 <0>       0.1300
   26 N26       0.1457    -0.3931     1.3301 N.ar   1 <0>      -0.5300
   27 H27       1.0404     2.0966     0.0288 H      1 <0>       0.0900
   28 H28      -0.5753     2.0624    -0.7173 H      1 <0>       0.0900
   29 H29      -0.4141     2.1078     1.0548 H      1 <0>       0.0800
   30 H30       0.5575    -4.2848     1.1741 H      1 <0>       0.0800
   31 H31      -1.0626    -4.2779     0.4469 H      1 <0>       0.0800
   32 H32       1.2794    -3.9602    -1.4011 H      1 <0>       0.0900
   33 H33       0.9945    -5.5720    -0.6933 H      1 <0>       0.0900
   34 H34      -1.9096    -5.4042    -0.3808 H      1 <0>       0.0300
   35 H35      -2.3936    -5.8654    -2.0305 H      1 <0>       0.0700
   36 H36      -1.0890    -6.7516    -1.2052 H      1 <0>       0.0700
   37 H37      -1.6431    -3.6748    -3.2734 H      1 <0>       0.0900
   38 H38      -1.9748    -3.3146    -1.5584 H      1 <0>       0.0400
   39 H39      -0.3547    -1.7657    -3.0831 H      1 <0>       0.1000
   40 H40       0.8443    -2.9460    -2.5104 H      1 <0>       0.1100
   41 H41       1.7530    -3.6864     3.2726 H      1 <0>       0.0700
   42 H42       2.3484    -2.1488     2.5942 H      1 <0>       0.0800
   43 H43       2.5028    -2.3416     5.1429 H      1 <0>       0.1000
   44 H44       1.6139    -0.9159     4.5460 H      1 <0>       0.0800
   45 H45       2.6428    -2.7779     6.7225 H      1 <0>       0.1500
   46 H46       0.7903    -4.8081     9.8413 H      1 <0>       0.4300
   47 H47      -1.5788    -3.5494     6.7209 H      1 <0>       0.1900
   48 H48      -1.6801    -2.6571     5.3724 H      1 <0>       0.1000
   49 H49      -1.0847    -1.1195     4.6940 H      1 <0>       0.0800
   50 H50      -1.8351    -2.4586     2.8276 H      1 <0>       0.0800
   51 H51      -0.9452    -3.8851     3.4208 H      1 <0>       0.0700
@<TRIPOS>BOND
   1    1    2 1
   2    1   27 1
   3    1   28 1
   4    1   29 1
   5    2   26 ar
   6    2    3 ar
   7    3    4 ar
   8    4   11 1
   9    4    5 ar
  10    5    6 1
  11    5   12 ar
  12    6    7 1
  13    6   30 1
  14    6   31 1
  15    7    8 1
  16    7   32 1
  17    7   33 1
  18    8    9 1
  19    8   10 1
  20    9   34 1
  21    9   35 1
  22    9   36 1
  23   10   11 1
  24   10   37 1
  25   10   38 1
  26   11   39 1
  27   11   40 1
  28   12   13 1
  29   12   26 ar
  30   13   25 1
  31   13   14 1
  32   14   15 1
  33   14   41 1
  34   14   42 1
  35   15   16 1
  36   15   43 1
  37   15   44 1
  38   16   17 1
  39   16   24 1
  40   17   23 1
  41   17   18 2
  42   18   19 1
  43   18   45 1
  44   19   20 2
  45   19   21 am
  46   21   22 1
  47   21   46 1
  48   22   23 2
  49   23   47 1
  50   24   25 1
  51   24   48 1
  52   24   49 1
  53   25   50 1
  54   25   51 1
@<TRIPOS>MOLECULE
ZINC000069654313
  35   36    0    0    0
SMALL
USER_CHARGES
NO_NAME
@<TRIPOS>ATOM
    1 C1       -0.0187     1.5258     0.0104 C.3    1 <0>      -0.1400
    2 C2        0.0021    -0.0041     0.0020 C.3    1 <0>      -0.0200
    3 C3        0.7421    -0.5109     1.2415 C.3    1 <0>      -0.1400
    4 C4       -1.4117    -0.5257     0.0127 C.ar   1 <0>       0.3000
    5 N5       -2.2037    -0.2071     1.0182 N.ar   1 <0>      -0.5100
    6 C6       -3.4506    -0.6422     1.0684 C.ar   1 <0>       0.1500
    7 C7       -3.9276    -1.4478     0.0418 C.ar   1 <0>      -0.1200
    8 Cl8      -5.5578    -2.0442     0.0612 Cl     1 <0>      -0.0100
    9 C9       -3.0607    -1.7645    -1.0065 C.ar   1 <0>       0.2000
   10 C10      -3.5161    -2.6204    -2.1297 C.2    1 <0>       0.5600
   11 O11      -4.6516    -3.0522    -2.1428 O.2    1 <0>      -0.6000
   12 N12      -2.6700    -2.9190    -3.1354 N.pl3  1 <0>      -1.0800
   13 S13      -3.1783    -3.8743    -4.3890 S.o2   1 <0>       2.6800
   14 O14      -3.4133    -5.1641    -3.8409 O.2    1 <0>      -1.0200
   15 O15      -4.1718    -3.1315    -5.0823 O.2    1 <0>      -1.0200
   16 C16      -1.8202    -4.0451    -5.4985 C.2    1 <0>      -0.7600
   17 C17      -1.5355    -3.2294    -6.5400 C.2    1 <0>       0.1600
   18 N18      -0.4205    -3.6992    -7.1376 N.pl3  1 <0>      -0.3800
   19 C19       0.2402    -3.1173    -8.3085 C.3    1 <0>       0.1000
   20 N20      -0.0063    -4.8415    -6.4404 N.2    1 <0>      -0.3100
   21 C21      -0.8424    -5.0443    -5.4547 C.2    1 <0>       0.1300
   22 N22      -1.8209    -1.2808    -0.9837 N.ar   1 <0>      -0.4400
   23 H23       1.0039     1.9031     0.0027 H      1 <0>       0.0600
   24 H24      -0.5459     1.8868    -0.8726 H      1 <0>       0.0500
   25 H25      -0.5289     1.8773     0.9072 H      1 <0>       0.0600
   26 H26       0.5123    -0.3556    -0.8948 H      1 <0>       0.1000
   27 H27       0.2319    -0.1594     2.1383 H      1 <0>       0.0600
   28 H28       0.7568    -1.6008     1.2356 H      1 <0>       0.0500
   29 H29       1.7647    -0.1336     1.2338 H      1 <0>       0.0600
   30 H30      -4.0903    -0.3754     1.8967 H      1 <0>       0.1700
   31 H31      -2.0995    -2.3583    -6.8393 H      1 <0>       0.1900
   32 H32       0.9813    -2.3876    -7.9822 H      1 <0>       0.0800
   33 H33       0.7328    -3.9060    -8.8772 H      1 <0>       0.0900
   34 H34      -0.5018    -2.6252    -8.9373 H      1 <0>       0.0900
   35 H35      -0.7909    -5.8488    -4.7360 H      1 <0>       0.1900
@<TRIPOS>BOND
   1    1    2 1
   2    1   23 1
   3    1   24 1
   4    1   25 1
   5    2    3 1
   6    2    4 1
   7    2   26 1
   8    3   27 1
   9    3   28 1
  10    3   29 1
  11    4   22 ar
  12    4    5 ar
  13    5    6 ar
  14    6    7 ar
  15    6   30 1
  16    7    8 1
  17    7    9 ar
  18    9   10 1
  19    9   22 ar
  20   10   11 2
  21   10   12 1
  22   12   13 1
  23   13   14 2
  24   13   15 2
  25   13   16 1
  26   16   21 1
  27   16   17 2
  28   17   18 1
  29   17   31 1
  30   18   19 1
  31   18   20 1
  32   19   32 1
  33   19   33 1
  34   19   34 1
  35   20   21 2
  36   21   35 1
@<TRIPOS>MOLECULE
ZINC000072084333
41    43    1     0     0
SMALL
USER_CHARGES
@<TRIPOS>ATOM
1      C1     -0.5144    1.6864    1.6683 C.3      1 ZINC000072084333   -0.0700
2      C2     -0.4198    0.2181    1.3423 C.2      1 ZINC000072084333    0.1700
3      N3     -0.4452   -0.3092    0.1550 N.2      1 ZINC000072084333   -0.3800
4      O4     -0.3477   -1.5160    0.2294 O.3      1 ZINC000072084333    0.0800
5      C5     -0.2478   -1.8843    1.5102 C.2      1 ZINC000072084333    0.1900
6      C6     -0.1099   -3.2916    2.0312 C.3      1 ZINC000072084333   -0.0100
7      H7     -0.0503   -3.2724    3.1194 H        1 ZINC000072084333    0.1200
8      C8     -1.3246   -4.1170    1.6007 C.3      1 ZINC000072084333   -0.1200
9      C9     -1.2015   -5.5374    2.1570 C.3      1 ZINC000072084333   -0.1300
10     C10     0.0581   -6.1973    1.5871 C.3      1 ZINC000072084333    0.1000
11     N11     1.2135   -5.3355    1.8718 N.am     1 ZINC000072084333   -0.5800
12     C12     2.3001   -5.8285    2.4983 C.2      1 ZINC000072084333    0.5200
13     O13     2.2721   -6.9447    2.9739 O.2      1 ZINC000072084333   -0.5000
14     C14     3.5387   -5.0014    2.6073 C.2      1 ZINC000072084333    0.5200
15     O15     3.6096   -3.9357    2.0303 O.2      1 ZINC000072084333   -0.4900
16     N16     4.5778   -5.4381    3.3462 N.am     1 ZINC000072084333   -0.6400
17     C17     5.7084   -4.6303    3.5097 C.ar     1 ZINC000072084333    0.1300
18     C18     6.1105   -3.7820    2.4868 C.ar     1 ZINC000072084333   -0.0700
19     C19     7.2274   -2.9849    2.6489 C.ar     1 ZINC000072084333   -0.1100
20     C20     7.9474   -3.0303    3.8302 C.ar     1 ZINC000072084333    0.0900
21     F21     9.0393   -2.2498    3.9851 F        1 ZINC000072084333   -0.1100
22     C22     7.5493   -3.8754    4.8554 C.ar     1 ZINC000072084333    0.0600
23     F23     8.2531   -3.9178    6.0078 F        1 ZINC000072084333   -0.1100
24     C24     6.4279   -4.6718    4.6994 C.ar     1 ZINC000072084333    0.0800
25     F25     6.0389   -5.4955    5.6971 F        1 ZINC000072084333   -0.1100
26     C26     1.1624   -3.9258    1.4606 C.3      1 ZINC000072084333    0.0700
27     N27    -0.2877   -0.7867    2.2265 N.2      1 ZINC000072084333   -0.4800
28     H28     0.4855    2.1201    1.6847 H        1 ZINC000072084333    0.0900
29     H29    -1.1159    2.1887    0.9108 H        1 ZINC000072084333    0.0900
30     H30    -0.9811    1.8123    2.6452 H        1 ZINC000072084333    0.0900
31     H31    -2.2332   -3.6538    1.9854 H        1 ZINC000072084333    0.0800
32     H32    -1.3699   -4.1559    0.5123 H        1 ZINC000072084333    0.0800
33     H33    -1.1313   -5.4975    3.2440 H        1 ZINC000072084333    0.0800
34     H34    -2.0781   -6.1179    1.8697 H        1 ZINC000072084333    0.0900
35     H35     0.2042   -7.1708    2.0552 H        1 ZINC000072084333    0.1000
36     H36    -0.0495   -6.3201    0.5094 H        1 ZINC000072084333    0.0800
37     H37     4.5419   -6.3125    3.7646 H        1 ZINC000072084333    0.4300
38     H38     5.5503   -3.7453    1.5641 H        1 ZINC000072084333    0.1700
39     H39     7.5395   -2.3256    1.8524 H        1 ZINC000072084333    0.1600
40     H40     1.1448   -3.8629    0.3725 H        1 ZINC000072084333    0.0900
41     H41     2.0372   -3.4011    1.8448 H        1 ZINC000072084333    0.1500
@<TRIPOS>BOND
1     1     2     1
2     1     28    1
3     1     29    1
4     1     30    1
5     2     27    1
6     2     3     2
7     3     4     1
8     4     5     1
9     5     6     1
10    5     27    2
11    6     7     1
12    6     26    1
13    6     8     1
14    8     9     1
15    8     31    1
16    8     32    1
17    9     10    1
18    9     33    1
19    9     34    1
20    10    11    1
21    10    35    1
22    10    36    1
23    11    12    am
24    11    26    1
25    12    13    2
26    12    14    1
27    14    15    2
28    14    16    am
29    16    17    1
30    16    37    1
31    17    24    ar
32    17    18    ar
33    18    19    ar
34    18    38    1
35    19    20    ar
36    19    39    1
37    20    21    1
38    20    22    ar
39    22    23    1
40    22    24    ar
41    24    25    1
42    26    40    1
43    26    41    1
@<TRIPOS>SUBSTRUCTURE
1   ZINC000072084333 1     RESIDUE    1   A     ZIN   1
@<TRIPOS>MOLECULE
ZINC000072122438
  43   45    0    0    0
SMALL
USER_CHARGES
NO_NAME
@<TRIPOS>ATOM
    1 C1       -0.0178     1.4608     0.0101 C.3    1 <0>       0.1100
    2 N2        0.0021    -0.0041     0.0020 N.am   1 <0>      -0.6400
    3 C3       -1.1839    -0.8770     0.0027 C.3    1 <0>       0.0800
    4 C4       -0.5883    -2.2920    -0.0064 C.3    1 <0>       0.1000
    5 C5       -1.0459    -3.1012     1.1684 C.3    1 <0>      -0.1200
    6 C6        0.1122    -3.9804     1.7118 C.3    1 <0>      -0.1300
    7 C7        0.9509    -4.5395     0.5339 C.3    1 <0>       0.0900
    8 N8        0.2120    -4.9912    -0.6082 N.am   1 <0>      -0.6000
    9 C9       -0.2372    -6.2602    -0.6753 C.2    1 <0>       0.5200
   10 O10      -0.8614    -6.6319    -1.6464 O.2    1 <0>      -0.5400
   11 C11       0.0360    -7.2170     0.4564 C.3    1 <0>      -0.1300
   12 C12      -0.5778    -8.5803     0.1311 C.3    1 <0>      -0.0300
   13 C13      -0.3045    -9.5372     1.2628 C.2    1 <0>       0.3000
   14 N14       0.8717    -9.8246     1.7586 N.2    1 <0>      -0.5200
   15 C15       0.7413   -10.7078     2.7487 C.2    1 <0>       0.2700
   16 Cl16      2.0421   -11.3684     3.6896 Cl     1 <0>       0.0600
   17 N17      -0.5261   -10.9952     2.8963 N.2    1 <0>      -0.2900
   18 N18      -1.2272   -10.2395     1.9424 N.pl3  1 <0>      -0.4700
   19 C19      -0.0535    -4.0278    -1.7281 C.3    1 <0>       0.1200
   20 C20      -1.0341    -3.0522    -1.2503 C.3    1 <0>      -0.1400
   21 O21       0.8478    -2.0846    -0.0124 O.3    1 <0>      -0.3000
   22 C22       1.1032    -0.7694    -0.0131 C.2    1 <0>       0.6300
   23 O23       2.2290    -0.3121    -0.0191 O.2    1 <0>      -0.5200
   24 H24       1.0048     1.8381     0.0023 H      1 <0>       0.0900
   25 H25      -0.5450     1.8219    -0.8730 H      1 <0>       0.0700
   26 H26      -0.5280     1.8123     0.9069 H      1 <0>       0.0700
   27 H27      -1.7779    -0.7166     0.9025 H      1 <0>       0.0900
   28 H28      -1.7853    -0.7081    -0.8905 H      1 <0>       0.1000
   29 H29      -1.3871    -2.4297     1.9562 H      1 <0>       0.0800
   30 H30      -1.8715    -3.7437     0.8623 H      1 <0>       0.0900
   31 H31       0.7515    -3.3780     2.3572 H      1 <0>       0.0800
   32 H32      -0.3016    -4.8089     2.2866 H      1 <0>       0.0700
   33 H33       1.6388    -3.7599     0.2067 H      1 <0>       0.1000
   34 H34       1.5447    -5.3744     0.9061 H      1 <0>       0.0800
   35 H35       1.1125    -7.3255     0.5887 H      1 <0>       0.1100
   36 H36      -0.4056    -6.8295     1.3745 H      1 <0>       0.1000
   37 H37      -1.6543    -8.4718    -0.0011 H      1 <0>       0.1000
   38 H38      -0.1362    -8.9678    -0.7870 H      1 <0>       0.1100
   39 H39      -2.1864   -10.2311     1.7984 H      1 <0>       0.4500
   40 H40       0.8698    -3.5189    -2.0047 H      1 <0>       0.0800
   41 H41      -0.4538    -4.5630    -2.5891 H      1 <0>       0.1000
   42 H42      -1.9636    -3.5748    -1.0244 H      1 <0>       0.0900
   43 H43      -1.2269    -2.3336    -2.0469 H      1 <0>       0.0800
@<TRIPOS>BOND
   1    1    2 1
   2    1   24 1
   3    1   25 1
   4    1   26 1
   5    2   22 am
   6    2    3 1
   7    3    4 1
   8    3   27 1
   9    3   28 1
  10    4   20 1
  11    4    5 1
  12    4   21 1
  13    5    6 1
  14    5   29 1
  15    5   30 1
  16    6    7 1
  17    6   31 1
  18    6   32 1
  19    7    8 1
  20    7   33 1
  21    7   34 1
  22    8    9 am
  23    8   19 1
  24    9   10 2
  25    9   11 1
  26   11   12 1
  27   11   35 1
  28   11   36 1
  29   12   13 1
  30   12   37 1
  31   12   38 1
  32   13   18 1
  33   13   14 2
  34   14   15 1
  35   15   16 1
  36   15   17 2
  37   17   18 1
  38   18   39 1
  39   19   20 1
  40   19   40 1
  41   19   41 1
  42   20   42 1
  43   20   43 1
  44   21   22 1
  45   22   23 2
@<TRIPOS>MOLECULE
ZINC000072164773
42    45    1     0     0
SMALL
USER_CHARGES
@<TRIPOS>ATOM
1      O1      0.0021   -0.0041    0.0020 O.2      1 ZINC000072164773   -0.5300
2      C2     -0.0145    1.2156    0.0087 C.2      1 ZINC000072164773    0.5200
3      N3     -1.1848    1.8844    0.0291 N.am     1 ZINC000072164773   -0.6300
4      C4     -1.1836    3.2320    0.0343 C.2      1 ZINC000072164773    0.3800
5      N5     -0.0694    3.9086    0.0113 N.2      1 ZINC000072164773   -0.5400
6      C6      1.1282    3.3041   -0.0158 C.2      1 ZINC000072164773    0.1700
7      C7      1.1951    1.9512    0.0011 C.2      1 ZINC000072164773   -0.2300
8      C8      2.4898    1.1868    0.0146 C.3      1 ZINC000072164773   -0.0700
9      C9      3.6396    2.0557   -0.4947 C.3      1 ZINC000072164773    0.1200
10     N10     3.5518    3.3613    0.1805 N.am     1 ZINC000072164773   -1.0000
11     S11     4.7529    3.8913    1.1899 S.o2     1 ZINC000072164773    2.7000
12     O12     4.1539    4.8384    2.0637 O.2      1 ZINC000072164773   -0.9400
13     O13     5.4320    2.7307    1.6495 O.2      1 ZINC000072164773   -0.9400
14     C14     5.9069    4.7851    0.2031 C.ar     1 ZINC000072164773   -0.6700
15     C15     6.9676    4.1231   -0.3860 C.ar     1 ZINC000072164773   -0.0100
16     C16     7.8782    4.8185   -1.1622 C.ar     1 ZINC000072164773   -0.1400
17     C17     7.7227    6.1815   -1.3469 C.ar     1 ZINC000072164773    0.1300
18     O18     8.6140    6.8795   -2.1087 O.3      1 ZINC000072164773   -0.3200
19     C19     8.1125    7.3916   -3.3451 C.3      1 ZINC000072164773    0.0600
20     C20     7.4172    8.7273   -3.1332 C.3      1 ZINC000072164773   -0.1900
21     C21     6.1713    8.6010   -2.2705 C.3      1 ZINC000072164773    0.0600
22     O22     6.5122    8.1898   -0.9450 O.3      1 ZINC000072164773   -0.3100
23     C23     6.6570    6.8460   -0.7561 C.ar     1 ZINC000072164773    0.0500
24     C24     5.7452    6.1466    0.0157 C.ar     1 ZINC000072164773   -0.0200
25     C25     2.3581    4.1744   -0.0704 C.3      1 ZINC000072164773    0.1700
26     H26    -2.0239    1.3979    0.0397 H        1 ZINC000072164773    0.4200
27     H27    -2.1243    3.7620    0.0578 H        1 ZINC000072164773    0.2100
28     H28     2.7066    0.8666    1.0338 H        1 ZINC000072164773    0.0900
29     H29     2.3943    0.3084   -0.6237 H        1 ZINC000072164773    0.1000
30     H30     4.5925    1.5818   -0.2592 H        1 ZINC000072164773    0.1100
31     H31     3.5504    2.1910   -1.5725 H        1 ZINC000072164773    0.0800
32     H32     7.0864    3.0597   -0.2397 H        1 ZINC000072164773    0.1500
33     H33     8.7067    4.2999   -1.6216 H        1 ZINC000072164773    0.1500
34     H34     8.9411    7.5249   -4.0407 H        1 ZINC000072164773    0.1100
35     H35     7.4022    6.6802   -3.7664 H        1 ZINC000072164773    0.0600
36     H36     8.1123    9.4146   -2.6511 H        1 ZINC000072164773    0.0900
37     H37     7.1348    9.1362   -4.1033 H        1 ZINC000072164773    0.1000
38     H38     5.6652    9.5654   -2.2279 H        1 ZINC000072164773    0.1100
39     H39     5.5013    7.8642   -2.7135 H        1 ZINC000072164773    0.0600
40     H40     4.9133    6.6620    0.4726 H        1 ZINC000072164773    0.1500
41     H41     2.4292    4.6275   -1.0592 H        1 ZINC000072164773    0.1000
42     H42     2.2886    4.9589    0.6831 H        1 ZINC000072164773    0.1200
@<TRIPOS>BOND
1     1     2     2
2     2     7     1
3     2     3     am
4     3     4     1
5     3     26    1
6     4     5     2
7     4     27    1
8     5     6     1
9     6     25    1
10    6     7     2
11    7     8     1
12    8     9     1
13    8     28    1
14    8     29    1
15    9     10    1
16    9     30    1
17    9     31    1
18    10    11    am
19    10    25    1
20    11    12    2
21    11    13    2
22    11    14    1
23    14    24    ar
24    14    15    ar
25    15    16    ar
26    15    32    1
27    16    17    ar
28    16    33    1
29    17    23    ar
30    17    18    1
31    18    19    1
32    19    20    1
33    19    34    1
34    19    35    1
35    20    21    1
36    20    36    1
37    20    37    1
38    21    22    1
39    21    38    1
40    21    39    1
41    22    23    1
42    23    24    ar
43    24    40    1
44    25    41    1
45    25    42    1
@<TRIPOS>SUBSTRUCTURE
1   ZINC000072164773 1     RESIDUE    1   A     ZIN   1

@<TRIPOS>MOLECULE
ZINC000072164773
41    44    1     0     0
SMALL
USER_CHARGES
@<TRIPOS>ATOM
1      O1      0.0021   -0.0041    0.0020 O.2      1 ZINC000072164773   -0.6200
2      C2     -0.0145    1.2156    0.0087 C.2      1 ZINC000072164773    0.4900
3      N3     -1.1848    1.8844    0.0291 N.pl3    1 ZINC000072164773   -0.6700
4      C4     -1.1836    3.2320    0.0343 C.2      1 ZINC000072164773    0.3300
5      N5     -0.0694    3.9086    0.0113 N.2      1 ZINC000072164773   -0.6300
6      C6      1.1282    3.3041   -0.0158 C.2      1 ZINC000072164773    0.1500
7      C7      1.1951    1.9512    0.0011 C.2      1 ZINC000072164773   -0.3200
8      C8      2.4898    1.1868    0.0146 C.3      1 ZINC000072164773   -0.0500
9      C9      3.6396    2.0557   -0.4947 C.3      1 ZINC000072164773    0.1200
10     N10     3.5518    3.3613    0.1805 N.am     1 ZINC000072164773   -0.9900
11     S11     4.7529    3.8913    1.1899 S.o2     1 ZINC000072164773    2.7000
12     O12     4.1539    4.8384    2.0637 O.2      1 ZINC000072164773   -0.9500
13     O13     5.4320    2.7307    1.6495 O.2      1 ZINC000072164773   -0.9500
14     C14     5.9069    4.7851    0.2031 C.ar     1 ZINC000072164773   -0.6700
15     C15     6.9676    4.1231   -0.3860 C.ar     1 ZINC000072164773   -0.0100
16     C16     7.8782    4.8185   -1.1622 C.ar     1 ZINC000072164773   -0.1400
17     C17     7.7227    6.1815   -1.3469 C.ar     1 ZINC000072164773    0.1200
18     O18     8.6140    6.8795   -2.1087 O.3      1 ZINC000072164773   -0.3200
19     C19     8.1125    7.3916   -3.3451 C.3      1 ZINC000072164773    0.0600
20     C20     7.4172    8.7273   -3.1332 C.3      1 ZINC000072164773   -0.1900
21     C21     6.1713    8.6010   -2.2705 C.3      1 ZINC000072164773    0.0600
22     O22     6.5122    8.1898   -0.9450 O.3      1 ZINC000072164773   -0.3100
23     C23     6.6570    6.8460   -0.7561 C.ar     1 ZINC000072164773    0.0400
24     C24     5.7452    6.1466    0.0157 C.ar     1 ZINC000072164773   -0.0100
25     C25     2.3581    4.1744   -0.0704 C.3      1 ZINC000072164773    0.1800
26     H26    -2.1243    3.7620    0.0578 H        1 ZINC000072164773    0.1600
27     H27     2.7066    0.8666    1.0338 H        1 ZINC000072164773    0.0600
28     H28     2.3943    0.3084   -0.6237 H        1 ZINC000072164773    0.0800
29     H29     4.5925    1.5818   -0.2592 H        1 ZINC000072164773    0.0900
30     H30     3.5504    2.1910   -1.5725 H        1 ZINC000072164773    0.0700
31     H31     7.0864    3.0597   -0.2397 H        1 ZINC000072164773    0.1500
32     H32     8.7067    4.2999   -1.6216 H        1 ZINC000072164773    0.1500
33     H33     8.9411    7.5249   -4.0407 H        1 ZINC000072164773    0.1100
34     H34     7.4022    6.6802   -3.7664 H        1 ZINC000072164773    0.0600
35     H35     8.1123    9.4146   -2.6511 H        1 ZINC000072164773    0.0800
36     H36     7.1348    9.1362   -4.1033 H        1 ZINC000072164773    0.0900
37     H37     5.6652    9.5654   -2.2279 H        1 ZINC000072164773    0.1100
38     H38     5.5013    7.8642   -2.7135 H        1 ZINC000072164773    0.0600
39     H39     4.9133    6.6620    0.4726 H        1 ZINC000072164773    0.1500
40     H40     2.4292    4.6275   -1.0592 H        1 ZINC000072164773    0.0800
41     H41     2.2886    4.9589    0.6831 H        1 ZINC000072164773    0.1000
@<TRIPOS>BOND
1     1     2     2
2     2     7     1
3     2     3     1
4     3     4     1
5     4     5     2
6     4     26    1
7     5     6     1
8     6     25    1
9     6     7     2
10    7     8     1
11    8     9     1
12    8     27    1
13    8     28    1
14    9     10    1
15    9     29    1
16    9     30    1
17    10    11    am
18    10    25    1
19    11    12    2
20    11    13    2
21    11    14    1
22    14    24    ar
23    14    15    ar
24    15    16    ar
25    15    31    1
26    16    17    ar
27    16    32    1
28    17    23    ar
29    17    18    1
30    18    19    1
31    19    20    1
32    19    33    1
33    19    34    1
34    20    21    1
35    20    35    1
36    20    36    1
37    21    22    1
38    21    37    1
39    21    38    1
40    22    23    1
41    23    24    ar
42    24    39    1
43    25    40    1
44    25    41    1
@<TRIPOS>SUBSTRUCTURE
1   ZINC000072164773 1     RESIDUE    1   A     ZIN   1
@<TRIPOS>MOLECULE
ZINC000072421973
  48   51    0    0    0
SMALL
USER_CHARGES
NO_NAME
@<TRIPOS>ATOM
    1 O1       -0.0797    -0.2955     0.2396 O.co2  1 <0>      -0.6700
    2 C2       -0.0526     0.9223     0.2909 C.2    1 <0>       0.4900
    3 O3        1.0160     1.5064     0.3487 O.co2  1 <0>      -0.6300
    4 C4       -1.3398     1.7059     0.2765 C.3    1 <0>      -0.0900
    5 N5       -2.4766     0.7788     0.1969 N.4    1 <0>      -0.3500
    6 H6       -2.4000     0.1223     0.9593 H      1 <0>       0.4200
    7 C7       -2.3748     0.0415    -1.0493 C.3    1 <0>      -0.0100
    8 C8       -3.3413    -1.1480    -1.0658 C.3    1 <0>      -0.0800
    9 C9       -4.6908    -0.6508    -1.5397 C.ar   1 <0>       0.1800
   10 N10      -5.1666    -1.0204    -2.7171 N.ar   1 <0>      -0.4900
   11 C11      -6.3526    -0.5796    -3.1287 C.ar   1 <0>       0.4200
   12 C12      -6.8591    -1.0081    -4.4466 C.2    1 <0>       0.0100
   13 C13      -6.2223    -1.8400    -5.3152 C.2    1 <0>      -0.1200
   14 C14      -7.0619    -1.9744    -6.4368 C.2    1 <0>      -0.2200
   15 C15      -8.1590    -1.2262    -6.2016 C.2    1 <0>       0.0000
   16 O16      -8.0353    -0.6484    -4.9972 O.3    1 <0>      -0.1500
   17 N17      -7.0935     0.2351    -2.3860 N.ar   1 <0>      -0.5100
   18 C18      -6.6681     0.6404    -1.1920 C.ar   1 <0>       0.4600
   19 N19      -7.4385     1.4901    -0.4147 N.pl3  1 <0>      -0.6600
   20 C20      -8.4334     0.9686     0.5336 C.3    1 <0>       0.1800
   21 C21      -9.6891     1.7886     0.4323 C.2    1 <0>      -0.1800
   22 C22      -9.7664     2.9047    -0.2191 C.2    1 <0>      -0.1300
   23 C23      -8.6327     3.5293    -0.9764 C.3    1 <0>      -0.1100
   24 C24      -7.2901     2.9535    -0.5000 C.3    1 <0>       0.1500
   25 C25      -5.4275     0.1886    -0.7425 C.ar   1 <0>      -0.2200
   26 C26      -4.8954     0.6128     0.6089 C.3    1 <0>      -0.0800
   27 C27      -3.6984     1.5421     0.3757 C.3    1 <0>      -0.0100
   28 H28      -1.4158     2.2965     1.1894 H      1 <0>       0.1300
   29 H29      -1.3513     2.3699    -0.5878 H      1 <0>       0.1200
   30 H30      -2.6123     0.7070    -1.8792 H      1 <0>       0.1100
   31 H31      -1.3548    -0.3247    -1.1661 H      1 <0>       0.1800
   32 H32      -2.9711    -1.9138    -1.7475 H      1 <0>       0.1300
   33 H33      -3.4333    -1.5616    -0.0615 H      1 <0>       0.1100
   34 H34      -5.2588    -2.3063    -5.1718 H      1 <0>       0.1600
   35 H35      -6.8647    -2.5652    -7.3191 H      1 <0>       0.1600
   36 H36      -8.9995    -1.1137    -6.8704 H      1 <0>       0.2100
   37 H37      -8.6566    -0.0707     0.2925 H      1 <0>       0.0800
   38 H38      -8.0381     1.0314     1.5475 H      1 <0>       0.0700
   39 H39     -10.5763     1.4264     0.9304 H      1 <0>       0.1200
   40 H40     -10.7143     3.4223    -0.2173 H      1 <0>       0.1000
   41 H41      -8.7564     3.3289    -2.0407 H      1 <0>       0.0800
   42 H42      -8.6396     4.6068    -0.8121 H      1 <0>       0.0800
   43 H43      -7.0398     3.3628     0.4788 H      1 <0>       0.0700
   44 H44      -6.5070     3.2028    -1.2160 H      1 <0>       0.0700
   45 H45      -5.6722     1.1420     1.1608 H      1 <0>       0.1200
   46 H46      -4.5767    -0.2650     1.1711 H      1 <0>       0.1000
   47 H47      -3.5831     2.2004     1.2367 H      1 <0>       0.1300
   48 H48      -3.8814     2.1455    -0.5134 H      1 <0>       0.1200
@<TRIPOS>BOND
   1    1    2 ar
   2    2    3 ar
   3    2    4 1
   4    4    5 1
   5    4   28 1
   6    4   29 1
   7    5    6 1
   8    5   27 1
   9    5    7 1
  10    7    8 1
  11    7   30 1
  12    7   31 1
  13    8    9 1
  14    8   32 1
  15    8   33 1
  16    9   25 ar
  17    9   10 ar
  18   10   11 ar
  19   11   12 1
  20   11   17 ar
  21   12   16 1
  22   12   13 2
  23   13   14 1
  24   13   34 1
  25   14   15 2
  26   14   35 1
  27   15   16 1
  28   15   36 1
  29   17   18 ar
  30   18   19 1
  31   18   25 ar
  32   19   24 1
  33   19   20 1
  34   20   21 1
  35   20   37 1
  36   20   38 1
  37   21   22 2
  38   21   39 1
  39   22   23 1
  40   22   40 1
  41   23   24 1
  42   23   41 1
  43   23   42 1
  44   24   43 1
  45   24   44 1
  46   25   26 1
  47   26   27 1
  48   26   45 1
  49   26   46 1
  50   27   47 1
  51   27   48 1

@<TRIPOS>MOLECULE
ZINC000072421973
  48   51    0    0    0
SMALL
USER_CHARGES
NO_NAME
@<TRIPOS>ATOM
    1 O1        0.0613     0.2547     0.2334 O.co2  1 <0>      -0.6700
    2 C2        0.0037     1.4717     0.2797 C.2    1 <0>       0.4900
    3 O3        1.0292     2.1289     0.3331 O.co2  1 <0>      -0.6300
    4 C4       -1.3349     2.1638     0.2647 C.3    1 <0>      -0.0900
    5 N5       -2.4046     1.1596     0.1911 N.4    1 <0>      -0.3500
    6 H6       -2.2316     0.5752    -0.6131 H      1 <0>       0.4200
    7 C7       -2.3309     0.3297     1.3798 C.3    1 <0>      -0.0100
    8 C8       -3.2081    -0.9189     1.2349 C.3    1 <0>      -0.0800
    9 C9       -4.6178    -0.5539     1.6500 C.ar   1 <0>       0.1800
   10 N10      -5.1408    -1.0504     2.7586 N.ar   1 <0>      -0.4900
   11 C11      -6.3795    -0.7250     3.1193 C.ar   1 <0>       0.4200
   12 C12      -6.9377    -1.2935     4.3611 C.2    1 <0>       0.0100
   13 C13      -6.2962    -2.1414     5.2105 C.2    1 <0>      -0.1200
   14 C14      -7.1954    -2.4257     6.2552 C.2    1 <0>      -0.2200
   15 C15      -8.3306    -1.7450     5.9962 C.2    1 <0>       0.0000
   16 O16      -8.1695    -1.0588     4.8547 O.3    1 <0>      -0.1500
   17 N17      -7.1274     0.0977     2.3925 N.ar   1 <0>      -0.5100
   18 C18      -6.6561     0.6278     1.2667 C.ar   1 <0>       0.4600
   19 N19      -7.4337     1.4859     0.5060 N.pl3  1 <0>      -0.6600
   20 C20      -7.4380     2.9353     0.7513 C.3    1 <0>       0.1800
   21 C21      -8.8513     3.4430     0.6846 C.2    1 <0>      -0.1800
   22 C22      -9.8465     2.7392     0.2488 C.2    1 <0>      -0.1300
   23 C23      -9.7422     1.3224    -0.2316 C.3    1 <0>      -0.1100
   24 C24      -8.2859     0.9840    -0.5862 C.3    1 <0>       0.1500
   25 C25      -5.3599     0.2979     0.8712 C.ar   1 <0>      -0.2200
   26 C26      -4.7736     0.8669    -0.4023 C.3    1 <0>      -0.0800
   27 C27      -3.6641     1.8518    -0.0130 C.3    1 <0>      -0.0100
   28 H28      -1.4503     2.7515     1.1754 H      1 <0>       0.1200
   29 H29      -1.3940     2.8218    -0.6023 H      1 <0>       0.1300
   30 H30      -1.2968     0.0239     1.5391 H      1 <0>       0.1800
   31 H31      -2.6690     0.9066     2.2405 H      1 <0>       0.1100
   32 H32      -3.2046    -1.2528     0.1973 H      1 <0>       0.1100
   33 H33      -2.8285    -1.7122     1.8789 H      1 <0>       0.1300
   34 H34      -5.2915    -2.5228     5.1033 H      1 <0>       0.1600
   35 H35      -7.0113    -3.0677     7.1039 H      1 <0>       0.1600
   36 H36      -9.2204    -1.7489     6.6082 H      1 <0>       0.2100
   37 H37      -7.0241     3.1388     1.7389 H      1 <0>       0.0800
   38 H38      -6.8353     3.4349    -0.0073 H      1 <0>       0.0700
   39 H39      -9.0474     4.4510     1.0192 H      1 <0>       0.1200
   40 H40     -10.8207     3.2050     0.2302 H      1 <0>       0.1000
   41 H41     -10.0908     0.6494     0.5518 H      1 <0>       0.0800
   42 H42     -10.3659     1.1948    -1.1164 H      1 <0>       0.0800
   43 H43      -8.0137     1.4651    -1.5256 H      1 <0>       0.0700
   44 H44      -8.1697    -0.0960    -0.6768 H      1 <0>       0.0700
   45 H45      -4.3572     0.0617    -1.0078 H      1 <0>       0.1000
   46 H46      -5.5490     1.3876    -0.9642 H      1 <0>       0.1200
   47 H47      -3.9477     2.3658     0.9055 H      1 <0>       0.1200
   48 H48      -3.5409     2.5856    -0.8096 H      1 <0>       0.1300
@<TRIPOS>BOND
   1    1    2 ar
   2    2    3 ar
   3    2    4 1
   4    4    5 1
   5    4   28 1
   6    4   29 1
   7    5    6 1
   8    5   27 1
   9    5    7 1
  10    7    8 1
  11    7   30 1
  12    7   31 1
  13    8    9 1
  14    8   32 1
  15    8   33 1
  16    9   25 ar
  17    9   10 ar
  18   10   11 ar
  19   11   12 1
  20   11   17 ar
  21   12   16 1
  22   12   13 2
  23   13   14 1
  24   13   34 1
  25   14   15 2
  26   14   35 1
  27   15   16 1
  28   15   36 1
  29   17   18 ar
  30   18   19 1
  31   18   25 ar
  32   19   24 1
  33   19   20 1
  34   20   21 1
  35   20   37 1
  36   20   38 1
  37   21   22 2
  38   21   39 1
  39   22   23 1
  40   22   40 1
  41   23   24 1
  42   23   41 1
  43   23   42 1
  44   24   43 1
  45   24   44 1
  46   25   26 1
  47   26   27 1
  48   26   45 1
  49   26   46 1
  50   27   47 1
  51   27   48 1
@<TRIPOS>MOLECULE
ZINC000077488250
42    45    1     0     0
SMALL
USER_CHARGES
@<TRIPOS>ATOM
1      C1      0.3977    1.4936   -0.0196 C.3      1 ZINC000077488250   -0.1100
2      C2      0.3059   -0.0106   -0.0200 C.ar     1 ZINC000077488250    0.1100
3      C3      0.3810   -0.7076   -1.2171 C.ar     1 ZINC000077488250    0.0500
4      N4      0.3016   -2.0232   -1.2226 N.ar     1 ZINC000077488250   -0.4000
5      C5      0.1492   -2.6836   -0.0782 C.ar     1 ZINC000077488250    0.0200
6      C6      0.0601   -4.1624   -0.0800 C.2      1 ZINC000077488250    0.5900
7      O7      0.0750   -4.7732    0.9704 O.2      1 ZINC000077488250   -0.5200
8      N8     -0.0376   -4.8302   -1.2466 N.am     1 ZINC000077488250   -0.5900
9      C9     -0.1355   -6.2992   -1.2830 C.3      1 ZINC000077488250    0.1100
10     C10    -1.4954   -6.6619   -1.8789 C.3      1 ZINC000077488250   -0.0700
11     C11    -1.7650   -5.8618   -3.1237 C.2      1 ZINC000077488250   -0.2300
12     C12    -1.1220   -4.7050   -3.4206 C.2      1 ZINC000077488250    0.1700
13     C13    -0.0569   -4.1232   -2.5318 C.3      1 ZINC000077488250    0.1200
14     N14    -1.4317   -4.0410   -4.5412 N.2      1 ZINC000077488250   -0.5100
15     C15    -2.3422   -4.4791   -5.3793 C.2      1 ZINC000077488250    0.4400
16     C16    -2.6436   -3.7003   -6.6006 C.ar     1 ZINC000077488250   -0.0300
17     C17    -3.6124   -4.1367   -7.5109 C.ar     1 ZINC000077488250   -0.1500
18     C18    -3.8620   -3.3784   -8.6375 C.ar     1 ZINC000077488250    0.1100
19     N19    -3.2018   -2.2590   -8.8602 N.ar     1 ZINC000077488250   -0.4700
20     C20    -2.2813   -1.8119   -8.0287 C.ar     1 ZINC000077488250    0.1000
21     C21    -1.9720   -2.5038   -6.8746 C.ar     1 ZINC000077488250   -0.1100
22     N22    -3.0133   -5.6406   -5.1412 N.am     1 ZINC000077488250   -0.6300
23     C23    -2.7425   -6.3470   -4.0257 C.2      1 ZINC000077488250    0.5300
24     O24    -3.3321   -7.3898   -3.7960 O.2      1 ZINC000077488250   -0.5200
25     C25     0.0741   -1.9800    1.1233 C.ar     1 ZINC000077488250    0.1200
26     N26     0.1596   -0.6619    1.1203 N.ar     1 ZINC000077488250   -0.4400
27     H27     1.4412    1.7939    0.0760 H        1 ZINC000077488250    0.0900
28     H28    -0.0083    1.8827   -0.9533 H        1 ZINC000077488250    0.0900
29     H29    -0.1733    1.8922    0.8190 H        1 ZINC000077488250    0.0900
30     H30     0.5043   -0.1712   -2.1463 H        1 ZINC000077488250    0.1800
31     H31     0.6609   -6.7070   -1.9055 H        1 ZINC000077488250    0.0800
32     H32    -0.0567   -6.6996   -0.2722 H        1 ZINC000077488250    0.1100
33     H33    -1.5071   -7.7236   -2.1255 H        1 ZINC000077488250    0.1000
34     H34    -2.2747   -6.4565   -1.1449 H        1 ZINC000077488250    0.0800
35     H35    -0.2620   -3.0658   -2.3644 H        1 ZINC000077488250    0.1700
36     H36     0.9155   -4.2316   -3.0122 H        1 ZINC000077488250    0.1000
37     H37    -4.1565   -5.0529   -7.3353 H        1 ZINC000077488250    0.1400
38     H38    -4.6079   -3.7068   -9.3461 H        1 ZINC000077488250    0.1700
39     H39    -1.7650   -0.8898   -8.2515 H        1 ZINC000077488250    0.1700
40     H40    -1.2169   -2.1317   -6.1980 H        1 ZINC000077488250    0.1600
41     H41    -3.6808   -5.9569   -5.7700 H        1 ZINC000077488250    0.4200
42     H42    -0.0500   -2.5120    2.0550 H        1 ZINC000077488250    0.1900
@<TRIPOS>BOND
1     1     2     1
2     1     27    1
3     1     28    1
4     1     29    1
5     2     26    ar
6     2     3     ar
7     3     4     ar
8     3     30    1
9     4     5     ar
10    5     6     1
11    5     25    ar
12    6     7     2
13    6     8     am
14    8     13    1
15    8     9     1
16    9     10    1
17    9     31    1
18    9     32    1
19    10    11    1
20    10    33    1
21    10    34    1
22    11    23    1
23    11    12    2
24    12    13    1
25    12    14    1
26    13    35    1
27    13    36    1
28    14    15    2
29    15    16    1
30    15    22    1
31    16    21    ar
32    16    17    ar
33    17    18    ar
34    17    37    1
35    18    19    ar
36    18    38    1
37    19    20    ar
38    20    21    ar
39    20    39    1
40    21    40    1
41    22    23    am
42    22    41    1
43    23    24    2
44    25    26    ar
45    25    42    1
@<TRIPOS>SUBSTRUCTURE
1   ZINC000077488250 1     RESIDUE    1   A     ZIN   1

@<TRIPOS>MOLECULE
ZINC000077488250
41    44    1     0     0
SMALL
USER_CHARGES
@<TRIPOS>ATOM
1      C1      0.3977    1.4936   -0.0196 C.3      1 ZINC000077488250   -0.1000
2      C2      0.3059   -0.0106   -0.0200 C.ar     1 ZINC000077488250    0.1000
3      C3      0.3810   -0.7076   -1.2171 C.ar     1 ZINC000077488250    0.0500
4      N4      0.3016   -2.0232   -1.2226 N.ar     1 ZINC000077488250   -0.3900
5      C5      0.1492   -2.6836   -0.0782 C.ar     1 ZINC000077488250    0.0300
6      C6      0.0601   -4.1624   -0.0800 C.2      1 ZINC000077488250    0.5800
7      O7      0.0750   -4.7732    0.9704 O.2      1 ZINC000077488250   -0.5400
8      N8     -0.0376   -4.8302   -1.2466 N.am     1 ZINC000077488250   -0.5800
9      C9     -0.1355   -6.2992   -1.2830 C.3      1 ZINC000077488250    0.1100
10     C10    -1.4954   -6.6619   -1.8789 C.3      1 ZINC000077488250   -0.0500
11     C11    -1.7650   -5.8618   -3.1237 C.2      1 ZINC000077488250   -0.3200
12     C12    -1.1220   -4.7050   -3.4206 C.2      1 ZINC000077488250    0.1500
13     C13    -0.0569   -4.1232   -2.5318 C.3      1 ZINC000077488250    0.1300
14     N14    -1.4317   -4.0410   -4.5412 N.2      1 ZINC000077488250   -0.6100
15     C15    -2.3422   -4.4791   -5.3793 C.2      1 ZINC000077488250    0.3700
16     C16    -2.6436   -3.7003   -6.6006 C.ar     1 ZINC000077488250    0.0300
17     C17    -1.9679   -2.5068   -6.8775 C.ar     1 ZINC000077488250   -0.1400
18     C18    -2.2806   -1.8124   -8.0292 C.ar     1 ZINC000077488250    0.0800
19     N19    -3.2011   -2.2595   -8.8607 N.ar     1 ZINC000077488250   -0.4900
20     C20    -3.8613   -3.3789   -8.6380 C.ar     1 ZINC000077488250    0.0800
21     C21    -3.6083   -4.1397   -7.5139 C.ar     1 ZINC000077488250   -0.1300
22     N22    -3.0133   -5.6406   -5.1412 N.pl3    1 ZINC000077488250   -0.6500
23     C23    -2.7425   -6.3470   -4.0257 C.2      1 ZINC000077488250    0.4900
24     O24    -3.3321   -7.3898   -3.7960 O.2      1 ZINC000077488250   -0.6200
25     C25     0.0741   -1.9800    1.1233 C.ar     1 ZINC000077488250    0.1200
26     N26     0.1596   -0.6619    1.1203 N.ar     1 ZINC000077488250   -0.4400
27     H27     1.4412    1.7939    0.0760 H        1 ZINC000077488250    0.0900
28     H28    -0.0083    1.8827   -0.9533 H        1 ZINC000077488250    0.0800
29     H29    -0.1733    1.8922    0.8190 H        1 ZINC000077488250    0.0800
30     H30     0.5043   -0.1712   -2.1463 H        1 ZINC000077488250    0.1800
31     H31     0.6609   -6.7070   -1.9055 H        1 ZINC000077488250    0.0700
32     H32    -0.0567   -6.6996   -0.2722 H        1 ZINC000077488250    0.0900
33     H33    -1.5071   -7.7236   -2.1255 H        1 ZINC000077488250    0.0800
34     H34    -2.2747   -6.4565   -1.1449 H        1 ZINC000077488250    0.0600
35     H35    -0.2620   -3.0658   -2.3644 H        1 ZINC000077488250    0.1600
36     H36     0.9155   -4.2316   -3.0122 H        1 ZINC000077488250    0.0800
37     H37    -1.2133   -2.1343   -6.2006 H        1 ZINC000077488250    0.1400
38     H38    -1.7646   -0.8901   -8.2518 H        1 ZINC000077488250    0.1500
39     H39    -4.6074   -3.7071   -9.3464 H        1 ZINC000077488250    0.1500
40     H40    -4.1530   -5.0555   -7.3378 H        1 ZINC000077488250    0.1500
41     H41    -0.0500   -2.5120    2.0550 H        1 ZINC000077488250    0.1800
@<TRIPOS>BOND
1     1     2     1
2     1     27    1
3     1     28    1
4     1     29    1
5     2     26    ar
6     2     3     ar
7     3     4     ar
8     3     30    1
9     4     5     ar
10    5     6     1
11    5     25    ar
12    6     7     2
13    6     8     am
14    8     13    1
15    8     9     1
16    9     10    1
17    9     31    1
18    9     32    1
19    10    11    1
20    10    33    1
21    10    34    1
22    11    23    1
23    11    12    2
24    12    13    1
25    12    14    1
26    13    35    1
27    13    36    1
28    14    15    2
29    15    16    1
30    15    22    1
31    16    21    ar
32    16    17    ar
33    17    18    ar
34    17    37    1
35    18    19    ar
36    18    38    1
37    19    20    ar
38    20    21    ar
39    20    39    1
40    21    40    1
41    22    23    1
42    23    24    2
43    25    26    ar
44    25    41    1
@<TRIPOS>SUBSTRUCTURE
1   ZINC000077488250 1     RESIDUE    1   A     ZIN   1
@<TRIPOS>MOLECULE
ZINC000078622098
51    53    1     0     0
SMALL
USER_CHARGES
@<TRIPOS>ATOM
1      C1     -2.1539   -2.0589    1.0867 C.3      1 ZINC000078622098   -0.1000
2      C2     -1.2376   -2.5309    2.1860 C.2      1 ZINC000078622098    0.1000
3      N3     -1.2616   -3.7108    2.7510 N.2      1 ZINC000078622098   -0.3000
4      N4     -0.2528   -3.7516    3.7221 N.pl3    1 ZINC000078622098   -0.3700
5      C5      0.0644   -4.8900    4.5880 C.3      1 ZINC000078622098    0.1000
6      C6      0.3752   -2.5571    3.7192 C.2      1 ZINC000078622098    0.1000
7      C7      1.5266   -2.1565    4.6050 C.3      1 ZINC000078622098   -0.1000
8      C8     -0.2107   -1.7855    2.7745 C.2      1 ZINC000078622098   -0.2400
9      C9      0.1701   -0.3701    2.4244 C.3      1 ZINC000078622098   -0.0300
10     H10     1.0550   -0.0811    2.9914 H        1 ZINC000078622098    0.0900
11     C11     0.4713   -0.2784    0.9272 C.3      1 ZINC000078622098   -0.1400
12     C12    -0.9692    0.5556    2.7652 C.2      1 ZINC000078622098    0.5300
13     O13    -1.8701    0.7263    1.9713 O.2      1 ZINC000078622098   -0.5200
14     N14    -0.9871    1.1937    3.9522 N.am     1 ZINC000078622098   -0.6100
15     C15     0.1551    1.0971    4.8713 C.3      1 ZINC000078622098    0.0900
16     C16    -0.3514    0.6319    6.2402 C.3      1 ZINC000078622098   -0.1300
17     C17    -1.4623    1.5714    6.7148 C.3      1 ZINC000078622098   -0.1100
18     C18    -2.6297    1.5241    5.7263 C.3      1 ZINC000078622098   -0.0200
19     H19    -2.9997    0.5018    5.6488 H        1 ZINC000078622098    0.1100
20     C20    -3.7366    2.4242    6.2117 C.2      1 ZINC000078622098    0.2900
21     N21    -3.9253    3.6508    5.8447 N.2      1 ZINC000078622098   -0.2700
22     N22    -5.0535    4.1391    6.5182 N.am     1 ZINC000078622098   -0.4700
23     C23    -5.5183    3.1407    7.2981 C.2      1 ZINC000078622098    0.4700
24     S24    -6.8829    3.2118    8.3295 S.2      1 ZINC000078622098   -0.5700
25     N25    -4.7136    2.0753    7.1113 N.am     1 ZINC000078622098   -0.4900
26     C26    -4.8529    0.7707    7.7630 C.3      1 ZINC000078622098    0.0700
27     C27    -2.1466    2.0040    4.3491 C.3      1 ZINC000078622098    0.1300
28     H28    -1.6742   -2.2175    0.1208 H        1 ZINC000078622098    0.0800
29     H29    -3.0873   -2.6204    1.1254 H        1 ZINC000078622098    0.0700
30     H30    -2.3628   -0.9972    1.2186 H        1 ZINC000078622098    0.1100
31     H31     0.8055   -5.5226    4.0995 H        1 ZINC000078622098    0.0800
32     H32     0.4645   -4.5262    5.5344 H        1 ZINC000078622098    0.0900
33     H33    -0.8407   -5.4680    4.7744 H        1 ZINC000078622098    0.0900
34     H34     2.4660   -2.3265    4.0789 H        1 ZINC000078622098    0.0900
35     H35     1.4388   -1.1003    4.8596 H        1 ZINC000078622098    0.0900
36     H36     1.5079   -2.7529    5.5172 H        1 ZINC000078622098    0.0700
37     H37    -0.3828   -0.6506    0.3613 H        1 ZINC000078622098    0.0700
38     H38     0.6608    0.7606    0.6576 H        1 ZINC000078622098    0.0600
39     H39     1.3504   -0.8799    0.6959 H        1 ZINC000078622098    0.0600
40     H40     0.8757    0.3767    4.4842 H        1 ZINC000078622098    0.1000
41     H41     0.6287    2.0739    4.9696 H        1 ZINC000078622098    0.0800
42     H42    -0.7428   -0.3821    6.1579 H        1 ZINC000078622098    0.0700
43     H43     0.4698    0.6483    6.9568 H        1 ZINC000078622098    0.0900
44     H44    -1.8076    1.2570    7.6997 H        1 ZINC000078622098    0.0700
45     H45    -1.0769    2.5893    6.7731 H        1 ZINC000078622098    0.0800
46     H46    -5.4301    5.0294    6.4386 H        1 ZINC000078622098    0.4700
47     H47    -5.7142    0.7883    8.4308 H        1 ZINC000078622098    0.1200
48     H48    -4.9957   -0.0003    7.0059 H        1 ZINC000078622098    0.0900
49     H49    -3.9523    0.5535    8.3374 H        1 ZINC000078622098    0.0900
50     H50    -1.8622    3.0546    4.4074 H        1 ZINC000078622098    0.0900
51     H51    -2.9454    1.8795    3.6180 H        1 ZINC000078622098    0.1000
@<TRIPOS>BOND
1     1     2     1
2     1     28    1
3     1     29    1
4     1     30    1
5     2     8     1
6     2     3     2
7     3     4     1
8     4     5     1
9     4     6     1
10    5     31    1
11    5     32    1
12    5     33    1
13    6     7     1
14    6     8     2
15    7     34    1
16    7     35    1
17    7     36    1
18    8     9     1
19    9     10    1
20    9     11    1
21    9     12    1
22    11    37    1
23    11    38    1
24    11    39    1
25    12    13    2
26    12    14    am
27    14    27    1
28    14    15    1
29    15    16    1
30    15    40    1
31    15    41    1
32    16    17    1
33    16    42    1
34    16    43    1
35    17    18    1
36    17    44    1
37    17    45    1
38    18    19    1
39    18    20    1
40    18    27    1
41    20    25    1
42    20    21    2
43    21    22    1
44    22    23    am
45    22    46    1
46    23    24    2
47    23    25    am
48    25    26    1
49    26    47    1
50    26    48    1
51    26    49    1
52    27    50    1
53    27    51    1
@<TRIPOS>SUBSTRUCTURE
1   ZINC000078622098 1     RESIDUE    1   A     ZIN   1

@<TRIPOS>MOLECULE
ZINC000078622098
50    52    1     0     0
SMALL
USER_CHARGES
@<TRIPOS>ATOM
1      C1     -2.1539   -2.0589    1.0867 C.3      1 ZINC000078622098   -0.1000
2      C2     -1.2376   -2.5309    2.1860 C.2      1 ZINC000078622098    0.1000
3      N3     -1.2616   -3.7108    2.7510 N.2      1 ZINC000078622098   -0.3000
4      N4     -0.2528   -3.7516    3.7221 N.pl3    1 ZINC000078622098   -0.3700
5      C5      0.0644   -4.8900    4.5880 C.3      1 ZINC000078622098    0.1000
6      C6      0.3752   -2.5571    3.7192 C.2      1 ZINC000078622098    0.0900
7      C7      1.5266   -2.1565    4.6050 C.3      1 ZINC000078622098   -0.1000
8      C8     -0.2107   -1.7855    2.7745 C.2      1 ZINC000078622098   -0.2300
9      C9      0.1701   -0.3701    2.4244 C.3      1 ZINC000078622098   -0.0300
10     H10     1.0550   -0.0811    2.9914 H        1 ZINC000078622098    0.0900
11     C11     0.4713   -0.2784    0.9272 C.3      1 ZINC000078622098   -0.1400
12     C12    -0.9692    0.5556    2.7652 C.2      1 ZINC000078622098    0.5200
13     O13    -1.8701    0.7263    1.9713 O.2      1 ZINC000078622098   -0.5300
14     N14    -0.9871    1.1937    3.9522 N.am     1 ZINC000078622098   -0.6100
15     C15     0.1551    1.0971    4.8713 C.3      1 ZINC000078622098    0.1000
16     C16    -0.3514    0.6319    6.2402 C.3      1 ZINC000078622098   -0.1300
17     C17    -1.4623    1.5714    6.7148 C.3      1 ZINC000078622098   -0.1100
18     C18    -2.6297    1.5241    5.7263 C.3      1 ZINC000078622098    0.0000
19     H19    -2.9997    0.5018    5.6488 H        1 ZINC000078622098    0.0800
20     C20    -3.7366    2.4242    6.2117 C.2      1 ZINC000078622098    0.1700
21     N21    -3.9253    3.6508    5.8447 N.2      1 ZINC000078622098   -0.3300
22     N22    -5.0535    4.1391    6.5182 N.pl3    1 ZINC000078622098   -0.3800
23     C23    -5.5183    3.1407    7.2981 C.2      1 ZINC000078622098    0.3900
24     S24    -6.8829    3.2118    8.3295 S.2      1 ZINC000078622098   -0.7900
25     N25    -4.7136    2.0753    7.1113 N.am     1 ZINC000078622098   -0.5000
26     C26    -4.8529    0.7707    7.7630 C.3      1 ZINC000078622098    0.0800
27     C27    -2.1466    2.0040    4.3491 C.3      1 ZINC000078622098    0.1300
28     H28    -1.6742   -2.2175    0.1208 H        1 ZINC000078622098    0.0700
29     H29    -3.0873   -2.6204    1.1254 H        1 ZINC000078622098    0.0700
30     H30    -2.3628   -0.9972    1.2186 H        1 ZINC000078622098    0.1100
31     H31     0.8055   -5.5226    4.0995 H        1 ZINC000078622098    0.0700
32     H32     0.4645   -4.5262    5.5344 H        1 ZINC000078622098    0.0900
33     H33    -0.8407   -5.4680    4.7744 H        1 ZINC000078622098    0.0900
34     H34     2.4660   -2.3265    4.0789 H        1 ZINC000078622098    0.0800
35     H35     1.4388   -1.1003    4.8596 H        1 ZINC000078622098    0.0900
36     H36     1.5079   -2.7529    5.5172 H        1 ZINC000078622098    0.0700
37     H37    -0.3828   -0.6506    0.3613 H        1 ZINC000078622098    0.0700
38     H38     0.6608    0.7606    0.6576 H        1 ZINC000078622098    0.0600
39     H39     1.3504   -0.8799    0.6959 H        1 ZINC000078622098    0.0600
40     H40     0.8757    0.3767    4.4842 H        1 ZINC000078622098    0.0900
41     H41     0.6287    2.0739    4.9696 H        1 ZINC000078622098    0.0700
42     H42    -0.7428   -0.3821    6.1579 H        1 ZINC000078622098    0.0700
43     H43     0.4698    0.6483    6.9568 H        1 ZINC000078622098    0.0800
44     H44    -1.8076    1.2570    7.6997 H        1 ZINC000078622098    0.0700
45     H45    -1.0769    2.5893    6.7731 H        1 ZINC000078622098    0.0700
46     H46    -5.7142    0.7883    8.4308 H        1 ZINC000078622098    0.1000
47     H47    -4.9957   -0.0003    7.0059 H        1 ZINC000078622098    0.0600
48     H48    -3.9523    0.5535    8.3374 H        1 ZINC000078622098    0.0600
49     H49    -1.8622    3.0546    4.4074 H        1 ZINC000078622098    0.0900
50     H50    -2.9454    1.8795    3.6180 H        1 ZINC000078622098    0.1000
@<TRIPOS>BOND
1     1     2     1
2     1     28    1
3     1     29    1
4     1     30    1
5     2     8     1
6     2     3     2
7     3     4     1
8     4     5     1
9     4     6     1
10    5     31    1
11    5     32    1
12    5     33    1
13    6     7     1
14    6     8     2
15    7     34    1
16    7     35    1
17    7     36    1
18    8     9     1
19    9     10    1
20    9     11    1
21    9     12    1
22    11    37    1
23    11    38    1
24    11    39    1
25    12    13    2
26    12    14    am
27    14    27    1
28    14    15    1
29    15    16    1
30    15    40    1
31    15    41    1
32    16    17    1
33    16    42    1
34    16    43    1
35    17    18    1
36    17    44    1
37    17    45    1
38    18    19    1
39    18    20    1
40    18    27    1
41    20    25    1
42    20    21    2
43    21    22    1
44    22    23    1
45    23    24    2
46    23    25    am
47    25    26    1
48    26    46    1
49    26    47    1
50    26    48    1
51    27    49    1
52    27    50    1
@<TRIPOS>SUBSTRUCTURE
1   ZINC000078622098 1     RESIDUE    1   A     ZIN   1
@<TRIPOS>MOLECULE
ZINC000080230311
42    43    1     0     0
SMALL
USER_CHARGES
@<TRIPOS>ATOM
1      C1     -0.2228    1.5369    0.0466 C.3      1 ZINC000080230311   -0.1500
2      C2     -0.2242    0.0069    0.0330 C.3      1 ZINC000080230311   -0.1100
3      H3     -1.2456   -0.3569    0.1445 H        1 ZINC000080230311    0.0700
4      C4      0.3540   -0.4926   -1.2930 C.3      1 ZINC000080230311   -0.1200
5      C5      0.3227   -2.0224   -1.3211 C.3      1 ZINC000080230311   -0.1300
6      C6      1.1877   -2.5679   -0.1804 C.3      1 ZINC000080230311    0.0400
7      N7      0.7288   -1.9780    1.0847 N.am     1 ZINC000080230311   -0.5700
8      C8      0.4011   -2.7635    2.1296 C.2      1 ZINC000080230311    0.5100
9      O9      0.0864   -2.2633    3.1896 O.2      1 ZINC000080230311   -0.5200
10     C10     0.4253   -4.2497    1.9832 C.2      1 ZINC000080230311    0.5200
11     O11     0.8619   -4.7525    0.9684 O.2      1 ZINC000080230311   -0.4800
12     N12    -0.0377   -5.0325    2.9778 N.am     1 ZINC000080230311   -0.6400
13     C13     0.0833   -6.4215    2.8876 C.ar     1 ZINC000080230311    0.2100
14     C14    -0.8352   -7.2435    3.5285 C.ar     1 ZINC000080230311   -0.1600
15     C15    -0.7126   -8.6160    3.4373 C.ar     1 ZINC000080230311    0.0100
16     C16     0.3231   -9.1724    2.7091 C.ar     1 ZINC000080230311   -0.6800
17     S17     0.4758  -10.9241    2.5954 S.o2     1 ZINC000080230311    2.4800
18     O18     1.8607  -11.1408    2.3627 O.2      1 ZINC000080230311   -0.8900
19     O19    -0.1536  -11.4080    3.7739 O.2      1 ZINC000080230311   -0.8900
20     C20    -0.4934  -11.3686    1.1278 C.3      1 ZINC000080230311   -0.2100
21     F21    -1.8224  -10.9708    1.3086 F        1 ZINC000080230311   -0.1600
22     F22     0.0377  -10.7241    0.0054 F        1 ZINC000080230311   -0.1600
23     C23     1.2390   -8.3571    2.0695 C.ar     1 ZINC000080230311    0.0100
24     C24     1.1192   -6.9839    2.1522 C.ar     1 ZINC000080230311   -0.1500
25     C25     0.6339   -0.5155    1.1895 C.3      1 ZINC000080230311    0.1100
26     H26     0.7988    1.9003   -0.0650 H        1 ZINC000080230311    0.0600
27     H27    -0.8325    1.9081   -0.7771 H        1 ZINC000080230311    0.0600
28     H28    -0.6336    1.8922    0.9916 H        1 ZINC000080230311    0.0600
29     H29    -0.2408   -0.1020   -2.1187 H        1 ZINC000080230311    0.0700
30     H30     1.3835   -0.1486   -1.3928 H        1 ZINC000080230311    0.0700
31     H31    -0.7036   -2.3676   -1.1965 H        1 ZINC000080230311    0.0700
32     H32     0.7131   -2.3769   -2.2751 H        1 ZINC000080230311    0.0800
33     H33     1.0902   -3.6525   -0.1344 H        1 ZINC000080230311    0.1600
34     H34     2.2301   -2.2995   -0.3518 H        1 ZINC000080230311    0.0700
35     H35    -0.4550   -4.6315    3.7563 H        1 ZINC000080230311    0.4300
36     H36    -1.6441   -6.8097    4.0976 H        1 ZINC000080230311    0.1400
37     H37    -1.4261   -9.2556    3.9355 H        1 ZINC000080230311    0.1500
38     H38    -0.4541  -12.4478    0.9796 H        1 ZINC000080230311    0.1600
39     H39     2.0466   -8.7950    1.5016 H        1 ZINC000080230311    0.1500
40     H40     1.8348   -6.3477    1.6525 H        1 ZINC000080230311    0.1500
41     H41     1.6310   -0.0793    1.1297 H        1 ZINC000080230311    0.0800
42     H42     0.1714   -0.2465    2.1392 H        1 ZINC000080230311    0.1000
@<TRIPOS>BOND
1     1     2     1
2     1     26    1
3     1     27    1
4     1     28    1
5     2     3     1
6     2     25    1
7     2     4     1
8     4     5     1
9     4     29    1
10    4     30    1
11    5     6     1
12    5     31    1
13    5     32    1
14    6     7     1
15    6     33    1
16    6     34    1
17    7     8     am
18    7     25    1
19    8     9     2
20    8     10    1
21    10    11    2
22    10    12    am
23    12    13    1
24    12    35    1
25    13    24    ar
26    13    14    ar
27    14    15    ar
28    14    36    1
29    15    16    ar
30    15    37    1
31    16    17    1
32    16    23    ar
33    17    18    2
34    17    19    2
35    17    20    1
36    20    21    1
37    20    22    1
38    20    38    1
39    23    24    ar
40    23    39    1
41    24    40    1
42    25    41    1
43    25    42    1
@<TRIPOS>SUBSTRUCTURE
1   ZINC000080230311 1     RESIDUE    1   A     ZIN   1
@<TRIPOS>MOLECULE
ZINC000088780269
  30   31    0    0    0
SMALL
USER_CHARGES
NO_NAME
@<TRIPOS>ATOM
    1 C1       -0.0178     1.4608     0.0101 C.3    1 <0>       0.0600
    2 N2        0.0021    -0.0041     0.0020 N.am   1 <0>      -0.5800
    3 C3        0.0069    -0.7223    -1.1277 C.2    1 <0>       0.5300
    4 O4       -0.0039    -0.2653    -2.2505 O.2    1 <0>      -0.4700
    5 C5        0.0284    -2.1951    -0.7812 C.3    1 <0>      -0.1600
    6 C6        0.0353    -2.2035     0.7611 C.3    1 <0>       0.1200
    7 H7       -0.8528    -2.7048     1.1459 H      1 <0>       0.1400
    8 N8        1.2495    -2.8478     1.2677 N.am   1 <0>      -1.1000
    9 S9        1.1904    -3.7516     2.6541 S.o2   1 <0>       2.6900
   10 O10       2.5012    -4.2616     2.8568 O.2    1 <0>      -0.9400
   11 O11       0.5055    -2.9635     3.6179 O.2    1 <0>      -0.9300
   12 C12       0.1603    -5.1430     2.3262 C.ar   1 <0>      -0.6800
   13 C13      -1.2003    -5.0651     2.5569 C.ar   1 <0>      -0.0100
   14 C14      -2.0091    -6.1566     2.2997 C.ar   1 <0>      -0.1300
   15 C15      -1.4574    -7.3260     1.8120 C.ar   1 <0>      -0.0300
   16 C16      -0.0956    -7.4045     1.5810 C.ar   1 <0>      -0.1100
   17 Br17      0.6599    -9.0044     0.9137 Br     1 <0>      -0.0300
   18 C18       0.7122    -6.3105     1.8330 C.ar   1 <0>       0.0100
   19 C19       0.0226    -0.7345     1.1238 C.2    1 <0>       0.5100
   20 O20       0.0237    -0.2896     2.2515 O.2    1 <0>      -0.4400
   21 H21       1.0048     1.8381     0.0023 H      1 <0>       0.0800
   22 H22      -0.5450     1.8219    -0.8730 H      1 <0>       0.0900
   23 H23      -0.5280     1.8123     0.9069 H      1 <0>       0.0900
   24 H24      -0.8631    -2.6922    -1.1635 H      1 <0>       0.1400
   25 H25       0.9296    -2.6679    -1.1714 H      1 <0>       0.1300
   26 H26       2.0881    -2.7451     0.7911 H      1 <0>       0.4300
   27 H27      -1.6317    -4.1514     2.9383 H      1 <0>       0.1500
   28 H28      -3.0721    -6.0953     2.4804 H      1 <0>       0.1500
   29 H29      -2.0892    -8.1787     1.6116 H      1 <0>       0.1400
   30 H30       1.7753    -6.3712     1.6525 H      1 <0>       0.1500
@<TRIPOS>BOND
   1    1    2 1
   2    1   21 1
   3    1   22 1
   4    1   23 1
   5    2   19 am
   6    2    3 am
   7    3    4 2
   8    3    5 1
   9    5    6 1
  10    5   24 1
  11    5   25 1
  12    6    7 1
  13    6    8 1
  14    6   19 1
  15    8    9 am
  16    8   26 1
  17    9   10 2
  18    9   11 2
  19    9   12 1
  20   12   18 ar
  21   12   13 ar
  22   13   14 ar
  23   13   27 1
  24   14   15 ar
  25   14   28 1
  26   15   16 ar
  27   15   29 1
  28   16   17 1
  29   16   18 ar
  30   18   30 1
  31   19   20 2
@<TRIPOS>MOLECULE
ZINC000088780269
  30   31    0    0    0
SMALL
USER_CHARGES
NO_NAME
@<TRIPOS>ATOM
    1 C1       -0.0178     1.4608     0.0101 C.3    1 <0>       0.0600
    2 N2        0.0021    -0.0041     0.0020 N.am   1 <0>      -0.5800
    3 C3        0.0069    -0.7223    -1.1277 C.2    1 <0>       0.5300
    4 O4       -0.0039    -0.2653    -2.2505 O.2    1 <0>      -0.4700
    5 C5        0.0284    -2.1951    -0.7812 C.3    1 <0>      -0.1600
    6 C6        0.0353    -2.2035     0.7611 C.3    1 <0>       0.1200
    7 H7       -0.8528    -2.7048     1.1459 H      1 <0>       0.1400
    8 N8        1.2495    -2.8478     1.2677 N.am   1 <0>      -1.1000
    9 S9        1.1904    -3.7516     2.6541 S.o2   1 <0>       2.6900
   10 O10       2.5012    -4.2616     2.8568 O.2    1 <0>      -0.9400
   11 O11       0.5055    -2.9635     3.6179 O.2    1 <0>      -0.9300
   12 C12       0.1603    -5.1430     2.3262 C.ar   1 <0>      -0.6800
   13 C13      -1.2003    -5.0651     2.5569 C.ar   1 <0>      -0.0100
   14 C14      -2.0091    -6.1566     2.2997 C.ar   1 <0>      -0.1300
   15 C15      -1.4574    -7.3260     1.8120 C.ar   1 <0>      -0.0300
   16 C16      -0.0956    -7.4045     1.5810 C.ar   1 <0>      -0.1100
   17 Br17      0.6599    -9.0044     0.9137 Br     1 <0>      -0.0300
   18 C18       0.7122    -6.3105     1.8330 C.ar   1 <0>       0.0100
   19 C19       0.0226    -0.7345     1.1238 C.2    1 <0>       0.5100
   20 O20       0.0237    -0.2896     2.2515 O.2    1 <0>      -0.4400
   21 H21       1.0048     1.8381     0.0023 H      1 <0>       0.0800
   22 H22      -0.5450     1.8219    -0.8730 H      1 <0>       0.0900
   23 H23      -0.5280     1.8123     0.9069 H      1 <0>       0.0900
   24 H24      -0.8631    -2.6922    -1.1635 H      1 <0>       0.1400
   25 H25       0.9296    -2.6679    -1.1714 H      1 <0>       0.1300
   26 H26       2.0881    -2.7451     0.7911 H      1 <0>       0.4300
   27 H27      -1.6317    -4.1514     2.9383 H      1 <0>       0.1500
   28 H28      -3.0721    -6.0953     2.4804 H      1 <0>       0.1500
   29 H29      -2.0892    -8.1787     1.6116 H      1 <0>       0.1400
   30 H30       1.7753    -6.3712     1.6525 H      1 <0>       0.1500
@<TRIPOS>BOND
   1    1    2 1
   2    1   21 1
   3    1   22 1
   4    1   23 1
   5    2   19 am
   6    2    3 am
   7    3    4 2
   8    3    5 1
   9    5    6 1
  10    5   24 1
  11    5   25 1
  12    6    7 1
  13    6    8 1
  14    6   19 1
  15    8    9 am
  16    8   26 1
  17    9   10 2
  18    9   11 2
  19    9   12 1
  20   12   18 ar
  21   12   13 ar
  22   13   14 ar
  23   13   27 1
  24   14   15 ar
  25   14   28 1
  26   15   16 ar
  27   15   29 1
  28   16   17 1
  29   16   18 ar
  30   18   30 1
  31   19   20 2
@<TRIPOS>MOLECULE
ZINC000091616921
  48   50    0    0    0
SMALL
USER_CHARGES
NO_NAME
@<TRIPOS>ATOM
    1 C1       -0.8268     1.5266    -1.1708 C.3    1 <0>      -0.1400
    2 C2       -0.7535    -0.0007    -1.1166 C.3    1 <0>       0.0700
    3 H3       -0.0713    -0.3037    -0.3223 H      1 <0>       0.0700
    4 C4       -0.2526    -0.5268    -2.4369 C.2    1 <0>       0.5000
    5 O5        0.9076    -0.3452    -2.7649 O.co2  1 <0>      -0.7100
    6 O6       -1.0074    -1.1339    -3.1772 O.co2  1 <0>      -0.6700
    7 N7       -2.0872    -0.5444    -0.8486 N.am   1 <0>      -0.5800
    8 C8       -2.2703    -1.3416     0.3579 C.3    1 <0>       0.1300
    9 C9       -3.7516    -1.4246     0.7252 C.3    1 <0>      -0.0700
   10 C10      -4.5448    -1.8560    -0.5131 C.3    1 <0>      -0.1100
   11 C11      -4.4796    -0.7291    -1.5471 C.3    1 <0>      -0.1300
   12 C12      -3.0591    -0.2745    -1.7208 C.2    1 <0>       0.5200
   13 O13      -2.7789     0.3665    -2.7116 O.2    1 <0>      -0.5200
   14 C14      -3.9483    -2.4527     1.8405 C.3    1 <0>      -0.1200
   15 C15      -5.4396    -2.5604     2.1744 C.3    1 <0>       0.1100
   16 N16      -5.9514    -1.2198     2.4900 N.am   1 <0>      -0.6000
   17 C17      -6.6038    -0.9884     3.6464 C.2    1 <0>       0.5600
   18 O18      -6.8400    -1.9081     4.4058 O.2    1 <0>      -0.5300
   19 C19      -7.0314     0.3814     3.9911 C.ar   1 <0>      -0.1700
   20 C20      -7.8144     1.1172     3.0984 C.ar   1 <0>      -0.0300
   21 C21      -8.2109     2.3957     3.4252 C.ar   1 <0>      -0.1700
   22 C22      -7.8347     2.9542     4.6379 C.ar   1 <0>       0.1500
   23 F23      -8.2272     4.2083     4.9514 F      1 <0>      -0.1300
   24 C24      -7.0587     2.2314     5.5292 C.ar   1 <0>      -0.2000
   25 C25      -6.6590     0.9465     5.2159 C.ar   1 <0>       0.1800
   26 F26      -5.9022     0.2415     6.0851 F      1 <0>      -0.1200
   27 C27      -5.7380    -0.1362     1.5209 C.3    1 <0>       0.1000
   28 C28      -4.2435    -0.0544     1.1941 C.3    1 <0>      -0.1300
   29 H29       0.1655     1.9311    -1.3702 H      1 <0>       0.0600
   30 H30      -1.5090     1.8296    -1.9651 H      1 <0>       0.0700
   31 H31      -1.1891     1.9071    -0.2158 H      1 <0>       0.0300
   32 H32      -1.8853    -2.3469     0.1866 H      1 <0>       0.0600
   33 H33      -1.7212    -0.8819     1.1796 H      1 <0>       0.0700
   34 H34      -4.1072    -2.7625    -0.9311 H      1 <0>       0.0700
   35 H35      -5.5831    -2.0404    -0.2372 H      1 <0>       0.0700
   36 H36      -4.8659    -1.0898    -2.5005 H      1 <0>       0.0900
   37 H37      -5.0858     0.1103    -1.2066 H      1 <0>       0.0900
   38 H38      -3.5787    -3.4233     1.5097 H      1 <0>       0.0800
   39 H39      -3.3989    -2.1368     2.7273 H      1 <0>       0.0700
   40 H40      -5.9778    -2.9645     1.3170 H      1 <0>       0.0800
   41 H41      -5.5749    -3.2152     3.0352 H      1 <0>       0.0900
   42 H42      -8.1083     0.6848     2.1535 H      1 <0>       0.1500
   43 H43      -8.8159     2.9647     2.7349 H      1 <0>       0.1500
   44 H44      -6.7689     2.6715     6.4720 H      1 <0>       0.1600
   45 H45      -6.3003    -0.3441     0.6106 H      1 <0>       0.0800
   46 H46      -6.0704     0.8089     1.9504 H      1 <0>       0.0900
   47 H47      -3.6921     0.2444     2.0856 H      1 <0>       0.0700
   48 H48      -4.0836     0.6793     0.4041 H      1 <0>       0.0800
@<TRIPOS>BOND
   1    1    2 1
   2    1   29 1
   3    1   30 1
   4    1   31 1
   5    2    3 1
   6    2    4 1
   7    2    7 1
   8    4    5 ar
   9    4    6 ar
  10    7   12 am
  11    7    8 1
  12    8    9 1
  13    8   32 1
  14    8   33 1
  15    9   28 1
  16    9   10 1
  17    9   14 1
  18   10   11 1
  19   10   34 1
  20   10   35 1
  21   11   12 1
  22   11   36 1
  23   11   37 1
  24   12   13 2
  25   14   15 1
  26   14   38 1
  27   14   39 1
  28   15   16 1
  29   15   40 1
  30   15   41 1
  31   16   17 am
  32   16   27 1
  33   17   18 2
  34   17   19 1
  35   19   25 ar
  36   19   20 ar
  37   20   21 ar
  38   20   42 1
  39   21   22 ar
  40   21   43 1
  41   22   23 1
  42   22   24 ar
  43   24   25 ar
  44   24   44 1
  45   25   26 1
  46   27   28 1
  47   27   45 1
  48   27   46 1
  49   28   47 1
  50   28   48 1
@<TRIPOS>MOLECULE
ZINC000091650885
  37   39    0    0    0
SMALL
USER_CHARGES
NO_NAME
@<TRIPOS>ATOM
    1 O1       -0.6795     1.1289     1.0238 O.2    1 <0>      -0.4900
    2 C2       -0.0144     1.2122     0.0087 C.2    1 <0>       0.6000
    3 C3        1.2548     1.9560     0.0198 C.2    1 <0>      -0.3000
    4 C4        2.4726     1.2909     0.1186 C.2    1 <0>       0.2100
    5 N5        3.6033     1.9912     0.1262 N.2    1 <0>      -0.5000
    6 C6        3.6037     3.2972     0.0428 C.2    1 <0>       0.3900
    7 C7        4.9210     4.0291     0.0570 C.3    1 <0>       0.1800
    8 N8        6.0158     3.0621     0.1693 N.pl3  1 <0>      -0.3800
    9 C9        7.0704     2.9397    -0.6552 C.2    1 <0>       0.2600
   10 N10       7.8198     1.9624    -0.2135 N.2    1 <0>      -0.5400
   11 C11       7.2786     1.4393     0.8860 C.2    1 <0>       0.2000
   12 N12       6.1751     2.0827     1.1633 N.2    1 <0>      -0.2800
   13 N13       2.4654     4.0066    -0.0555 N.am   1 <0>      -0.6200
   14 C14       1.2715     3.3763    -0.0761 C.2    1 <0>       0.5500
   15 O15       0.2337     4.0080    -0.1652 O.2    1 <0>      -0.5100
   16 N16      -0.4376     0.6185    -1.1248 N.am   1 <0>      -0.6100
   17 C17       0.3106     0.5572    -2.3936 C.3    1 <0>       0.1000
   18 C18      -0.7729     0.3646    -3.4839 C.3    1 <0>      -0.1300
   19 C19      -1.7792    -0.5696    -2.7616 C.3    1 <0>      -0.1300
   20 C20      -1.7191    -0.0809    -1.2989 C.3    1 <0>       0.1000
   21 H21      -2.5411     0.6079    -1.1041 H      1 <0>       0.1200
   22 C22      -1.8050    -1.2757    -0.3471 C.3    1 <0>       0.4400
   23 F23      -0.7337    -2.1423    -0.5886 F      1 <0>      -0.1800
   24 F24      -1.7498    -0.8232     0.9756 F      1 <0>      -0.1600
   25 F25      -3.0103    -1.9541    -0.5579 F      1 <0>      -0.1800
   26 H26       2.4997     0.2135     0.1890 H      1 <0>       0.1800
   27 H27       5.0311     4.5969    -0.8669 H      1 <0>       0.1400
   28 H28       4.9491     4.7102     0.9075 H      1 <0>       0.1300
   29 H29       7.2649     3.5425    -1.5300 H      1 <0>       0.2200
   30 H30       7.6876     0.6194     1.4577 H      1 <0>       0.2200
   31 H31       2.5024     4.9740    -0.1156 H      1 <0>       0.4200
   32 H32       0.8540     1.4875    -2.5589 H      1 <0>       0.0800
   33 H33       0.9979    -0.2888    -2.3882 H      1 <0>       0.0800
   34 H34      -1.2391     1.3151    -3.7435 H      1 <0>       0.0900
   35 H35      -0.3563    -0.1186    -4.3677 H      1 <0>       0.1000
   36 H36      -2.7819    -0.4464    -3.1708 H      1 <0>       0.1000
   37 H37      -1.4584    -1.6090    -2.8305 H      1 <0>       0.0900
@<TRIPOS>BOND
   1    1    2 2
   2    2    3 1
   3    2   16 am
   4    3   14 1
   5    3    4 2
   6    4    5 1
   7    4   26 1
   8    5    6 2
   9    6    7 1
  10    6   13 1
  11    7    8 1
  12    7   27 1
  13    7   28 1
  14    8   12 1
  15    8    9 1
  16    9   10 2
  17    9   29 1
  18   10   11 1
  19   11   12 2
  20   11   30 1
  21   13   14 am
  22   13   31 1
  23   14   15 2
  24   16   20 1
  25   16   17 1
  26   17   18 1
  27   17   32 1
  28   17   33 1
  29   18   19 1
  30   18   34 1
  31   18   35 1
  32   19   20 1
  33   19   36 1
  34   19   37 1
  35   20   21 1
  36   20   22 1
  37   22   23 1
  38   22   24 1
  39   22   25 1

@<TRIPOS>MOLECULE
ZINC000091650885
  36   38    0    0    0
SMALL
USER_CHARGES
NO_NAME
@<TRIPOS>ATOM
    1 O1       -0.6795     1.1289     1.0238 O.2    1 <0>      -0.5200
    2 C2       -0.0144     1.2122     0.0087 C.2    1 <0>       0.6200
    3 C3        1.2548     1.9560     0.0198 C.2    1 <0>      -0.3900
    4 C4        2.4726     1.2909     0.1186 C.2    1 <0>       0.2000
    5 N5        3.6033     1.9912     0.1262 N.2    1 <0>      -0.5900
    6 C6        3.6037     3.2972     0.0428 C.2    1 <0>       0.3300
    7 C7        4.9210     4.0291     0.0570 C.3    1 <0>       0.2100
    8 N8        6.0158     3.0621     0.1693 N.pl3  1 <0>      -0.3500
    9 C9        7.0704     2.9397    -0.6552 C.2    1 <0>       0.2400
   10 N10       7.8198     1.9624    -0.2135 N.2    1 <0>      -0.5600
   11 C11       7.2786     1.4393     0.8860 C.2    1 <0>       0.1700
   12 N12       6.1751     2.0827     1.1633 N.2    1 <0>      -0.2700
   13 N13       2.4654     4.0066    -0.0555 N.pl3  1 <0>      -0.6400
   14 C14       1.2715     3.3763    -0.0761 C.2    1 <0>       0.5200
   15 O15       0.2337     4.0080    -0.1652 O.2    1 <0>      -0.6000
   16 N16      -0.4376     0.6185    -1.1248 N.am   1 <0>      -0.6100
   17 C17       0.3106     0.5572    -2.3936 C.3    1 <0>       0.1100
   18 C18      -0.7729     0.3646    -3.4839 C.3    1 <0>      -0.1300
   19 C19      -1.7792    -0.5696    -2.7616 C.3    1 <0>      -0.1300
   20 C20      -1.7191    -0.0809    -1.2989 C.3    1 <0>       0.1000
   21 H21      -2.5411     0.6079    -1.1041 H      1 <0>       0.1100
   22 C22      -1.8050    -1.2757    -0.3471 C.3    1 <0>       0.4300
   23 F23      -0.7337    -2.1423    -0.5886 F      1 <0>      -0.1900
   24 F24      -1.7498    -0.8232     0.9756 F      1 <0>      -0.1600
   25 F25      -3.0103    -1.9541    -0.5579 F      1 <0>      -0.1900
   26 H26       2.4997     0.2135     0.1890 H      1 <0>       0.1300
   27 H27       5.0311     4.5969    -0.8669 H      1 <0>       0.1200
   28 H28       4.9491     4.7102     0.9075 H      1 <0>       0.1100
   29 H29       7.2649     3.5425    -1.5300 H      1 <0>       0.2100
   30 H30       7.6876     0.6194     1.4577 H      1 <0>       0.2100
   31 H31       0.8540     1.4875    -2.5589 H      1 <0>       0.0800
   32 H32       0.9979    -0.2888    -2.3882 H      1 <0>       0.0700
   33 H33      -1.2391     1.3151    -3.7435 H      1 <0>       0.0800
   34 H34      -0.3563    -0.1186    -4.3677 H      1 <0>       0.0900
   35 H35      -2.7819    -0.4464    -3.1708 H      1 <0>       0.1000
   36 H36      -1.4584    -1.6090    -2.8305 H      1 <0>       0.0900
@<TRIPOS>BOND
   1    1    2 2
   2    2    3 1
   3    2   16 am
   4    3   14 1
   5    3    4 2
   6    4    5 1
   7    4   26 1
   8    5    6 2
   9    6    7 1
  10    6   13 1
  11    7    8 1
  12    7   27 1
  13    7   28 1
  14    8   12 1
  15    8    9 1
  16    9   10 2
  17    9   29 1
  18   10   11 1
  19   11   12 2
  20   11   30 1
  21   13   14 1
  22   14   15 2
  23   16   20 1
  24   16   17 1
  25   17   18 1
  26   17   31 1
  27   17   32 1
  28   18   19 1
  29   18   33 1
  30   18   34 1
  31   19   20 1
  32   19   35 1
  33   19   36 1
  34   20   21 1
  35   20   22 1
  36   22   23 1
  37   22   24 1
  38   22   25 1
@<TRIPOS>MOLECULE
ZINC000091934967
  49   50    0    0    0
SMALL
USER_CHARGES
NO_NAME
@<TRIPOS>ATOM
    1 C1        0.1819     1.4920    -0.0850 C.3    1 <0>      -0.1000
    2 C2        0.1841    -0.0150    -0.0915 C.2    1 <0>      -0.1700
    3 C3        1.4860    -0.7661    -0.2016 C.3    1 <0>      -0.1000
    4 C4       -0.9456    -0.6721    -0.0015 C.2    1 <0>      -0.1200
    5 C5       -2.2474     0.0790     0.1085 C.3    1 <0>      -0.0600
    6 C6       -3.1959    -0.3792    -1.0011 C.3    1 <0>      -0.1300
    7 C7       -3.4570    -1.8568    -0.8614 C.2    1 <0>       0.5100
    8 O8       -2.9330    -2.4857     0.0421 O.co2  1 <0>      -0.6800
    9 O9       -4.1923    -2.4234    -1.6519 O.co2  1 <0>      -0.7000
   10 C10      -4.5168     0.3861    -0.8923 C.3    1 <0>      -0.0900
   11 C11      -4.2481     1.8888    -1.0009 C.3    1 <0>      -0.1400
   12 C12      -3.6232     2.1945    -2.3658 C.3    1 <0>       0.1100
   13 N13      -2.4304     1.3541    -2.5387 N.am   1 <0>      -0.5900
   14 C14      -1.2407     1.9061    -2.8493 C.2    1 <0>       0.5100
   15 O15      -0.2468     1.2123    -2.9079 O.2    1 <0>      -0.5000
   16 C16      -1.1456     3.3725    -3.1214 C.2    1 <0>       0.5200
   17 O17      -1.0034     4.1522    -2.2025 O.2    1 <0>      -0.5100
   18 N18      -1.2177     3.8290    -4.3875 N.am   1 <0>      -0.6000
   19 C19      -1.5059     2.9174    -5.5061 C.3    1 <0>       0.0700
   20 C20      -2.6495     3.5146    -6.3341 C.3    1 <0>       0.0500
   21 O21      -2.3250     4.8629    -6.6812 O.3    1 <0>      -0.3800
   22 C22      -2.1787     5.7371    -5.5595 C.3    1 <0>       0.0500
   23 C23      -1.0166     5.2547    -4.6912 C.3    1 <0>       0.0700
   24 C24      -2.5591    -0.0993    -2.3660 C.3    1 <0>       0.1400
   25 H25       1.2055     1.8572    -0.1675 H      1 <0>       0.0400
   26 H26      -0.4036     1.8581    -0.9284 H      1 <0>       0.0600
   27 H27      -0.2579     1.8506     0.8456 H      1 <0>       0.0500
   28 H28       1.8840    -0.9515     0.7961 H      1 <0>       0.0500
   29 H29       1.3155    -1.7166    -0.7072 H      1 <0>       0.0600
   30 H30       2.2001    -0.1734    -0.7733 H      1 <0>       0.0500
   31 H31      -0.9440    -1.7521    -0.0062 H      1 <0>       0.1300
   32 H32      -2.7009    -0.1204     1.0795 H      1 <0>       0.0600
   33 H33      -2.0598     1.1480     0.0078 H      1 <0>       0.0500
   34 H34      -5.1829     0.0772    -1.6979 H      1 <0>       0.0700
   35 H35      -4.9841     0.1693     0.0682 H      1 <0>       0.0600
   36 H36      -5.1863     2.4344    -0.9000 H      1 <0>       0.0700
   37 H37      -3.5624     2.1939    -0.2104 H      1 <0>       0.0700
   38 H38      -4.3426     1.9744    -3.1546 H      1 <0>       0.0700
   39 H39      -3.3391     3.2458    -2.4104 H      1 <0>       0.0700
   40 H40      -0.6185     2.8097    -6.1298 H      1 <0>       0.0900
   41 H41      -1.8032     1.9431    -5.1184 H      1 <0>       0.1000
   42 H42      -2.7864     2.9277    -7.2423 H      1 <0>       0.1100
   43 H43      -3.5688     3.5005    -5.7485 H      1 <0>       0.0600
   44 H44      -1.9770     6.7491    -5.9105 H      1 <0>       0.1100
   45 H45      -3.0963     5.7311    -4.9712 H      1 <0>       0.0600
   46 H46      -0.9876     5.8285    -3.7649 H      1 <0>       0.1000
   47 H47      -0.0781     5.3806    -5.2311 H      1 <0>       0.0800
   48 H48      -1.5729    -0.5613    -2.4107 H      1 <0>       0.0900
   49 H49      -3.1918    -0.5063    -3.1548 H      1 <0>       0.0800
@<TRIPOS>BOND
   1    1    2 1
   2    1   25 1
   3    1   26 1
   4    1   27 1
   5    2    3 1
   6    2    4 2
   7    3   28 1
   8    3   29 1
   9    3   30 1
  10    4    5 1
  11    4   31 1
  12    5    6 1
  13    5   32 1
  14    5   33 1
  15    6   24 1
  16    6    7 1
  17    6   10 1
  18    7    8 ar
  19    7    9 ar
  20   10   11 1
  21   10   34 1
  22   10   35 1
  23   11   12 1
  24   11   36 1
  25   11   37 1
  26   12   13 1
  27   12   38 1
  28   12   39 1
  29   13   14 am
  30   13   24 1
  31   14   15 2
  32   14   16 1
  33   16   17 2
  34   16   18 am
  35   18   23 1
  36   18   19 1
  37   19   20 1
  38   19   40 1
  39   19   41 1
  40   20   21 1
  41   20   42 1
  42   20   43 1
  43   21   22 1
  44   22   23 1
  45   22   44 1
  46   22   45 1
  47   23   46 1
  48   23   47 1
  49   24   48 1
  50   24   49 1
@<TRIPOS>MOLECULE
ZINC000092019869
48    50    1     0     0
SMALL
USER_CHARGES
@<TRIPOS>ATOM
1      C1     -6.6468   -3.6199    1.3947 C.3      1 ZINC000092019869   -0.0800
2      C2     -5.4265   -3.0865    0.6895 C.2      1 ZINC000092019869   -0.2000
3      C3     -4.2025   -3.5856    0.8144 C.2      1 ZINC000092019869   -0.1200
4      C4     -3.2201   -2.8804    0.0248 C.2      1 ZINC000092019869   -0.1500
5      C5     -1.7936   -3.2418   -0.0075 C.2      1 ZINC000092019869    0.5800
6      O6     -0.9487   -2.3738   -0.1182 O.2      1 ZINC000092019869   -0.5400
7      N7     -1.4237   -4.5344    0.0855 N.am     1 ZINC000092019869   -0.6000
8      C8     -0.0051   -4.9013    0.1947 C.3      1 ZINC000092019869    0.1100
9      C9      0.3272   -5.9172   -0.9028 C.3      1 ZINC000092019869   -0.1200
10     C10    -0.6381   -7.0998   -0.8079 C.3      1 ZINC000092019869   -0.0700
11     C11    -0.2881   -8.1319   -1.8856 C.3      1 ZINC000092019869   -0.1100
12     C12     1.2008   -8.4679   -1.7690 C.3      1 ZINC000092019869   -0.1300
13     C13     1.5451   -8.7741   -0.3397 C.2      1 ZINC000092019869    0.5200
14     O14     2.5786   -9.3666   -0.1128 O.2      1 ZINC000092019869   -0.5300
15     N15     0.7753   -8.4299    0.6934 N.am     1 ZINC000092019869   -0.5800
16     C16     1.2541   -8.7453    2.0416 C.3      1 ZINC000092019869    0.0700
17     H17     0.5231   -8.4058    2.7754 H        1 ZINC000092019869    0.0700
18     C18     1.4453  -10.2575    2.1741 C.3      1 ZINC000092019869   -0.1400
19     C19     2.5689   -8.0496    2.2833 C.2      1 ZINC000092019869    0.5000
20     O20     3.0604   -7.3547    1.4103 O.co2    1 ZINC000092019869   -0.6700
21     O21     3.1410   -8.1816    3.3518 O.co2    1 ZINC000092019869   -0.7000
22     C22    -0.5122   -7.7586    0.5653 C.3      1 ZINC000092019869    0.1300
23     C23    -2.0729   -6.6125   -1.0167 C.3      1 ZINC000092019869   -0.1200
24     C24    -2.4315   -5.6036    0.0856 C.3      1 ZINC000092019869    0.0900
25     C25    -3.7486   -1.8483   -0.6861 C.2      1 ZINC000092019869   -0.1900
26     S26    -5.4270   -1.7239   -0.4166 S.3      1 ZINC000092019869    0.1800
27     H27    -7.5179   -3.0296    1.1102 H        1 ZINC000092019869    0.0700
28     H28    -6.8046   -4.6604    1.1109 H        1 ZINC000092019869    0.0800
29     H29    -6.5006   -3.5555    2.4729 H        1 ZINC000092019869    0.0800
30     H30    -3.9658   -4.4319    1.4422 H        1 ZINC000092019869    0.1500
31     H31     0.6130   -4.0123    0.0691 H        1 ZINC000092019869    0.0900
32     H32     0.1834   -5.3448    1.1724 H        1 ZINC000092019869    0.0800
33     H33     0.2271   -5.4434   -1.8793 H        1 ZINC000092019869    0.0700
34     H34     1.3499   -6.2713   -0.7731 H        1 ZINC000092019869    0.1000
35     H35    -0.8803   -9.0344   -1.7346 H        1 ZINC000092019869    0.0700
36     H36    -0.4937   -7.7158   -2.8719 H        1 ZINC000092019869    0.0700
37     H37     1.4258   -9.3354   -2.3895 H        1 ZINC000092019869    0.0900
38     H38     1.7916   -7.6176   -2.1096 H        1 ZINC000092019869    0.1000
39     H39     1.8015  -10.4922    3.1771 H        1 ZINC000092019869    0.0600
40     H40     0.4944  -10.7607    1.9992 H        1 ZINC000092019869    0.0300
41     H41     2.1763  -10.5970    1.4402 H        1 ZINC000092019869    0.0800
42     H42    -0.5993   -6.9965    1.3398 H        1 ZINC000092019869    0.0700
43     H43    -1.3123   -8.4885    0.6881 H        1 ZINC000092019869    0.0500
44     H44    -2.1561   -6.1340   -1.9925 H        1 ZINC000092019869    0.0700
45     H45    -2.7557   -7.4607   -0.9677 H        1 ZINC000092019869    0.0800
46     H46    -2.4391   -6.1064    1.0527 H        1 ZINC000092019869    0.0700
47     H47    -3.4145   -5.1775   -0.1148 H        1 ZINC000092019869    0.1000
48     H48    -3.1822   -1.1983   -1.3364 H        1 ZINC000092019869    0.1700
@<TRIPOS>BOND
1     1     2     1
2     1     27    1
3     1     28    1
4     1     29    1
5     2     26    1
6     2     3     2
7     3     4     1
8     3     30    1
9     4     5     1
10    4     25    2
11    5     6     2
12    5     7     am
13    7     24    1
14    7     8     1
15    8     9     1
16    8     31    1
17    8     32    1
18    9     10    1
19    9     33    1
20    9     34    1
21    10    22    1
22    10    11    1
23    10    23    1
24    11    12    1
25    11    35    1
26    11    36    1
27    12    13    1
28    12    37    1
29    12    38    1
30    13    14    2
31    13    15    am
32    15    16    1
33    15    22    1
34    16    17    1
35    16    18    1
36    16    19    1
37    18    39    1
38    18    40    1
39    18    41    1
40    19    20    ar
41    19    21    ar
42    22    42    1
43    22    43    1
44    23    24    1
45    23    44    1
46    23    45    1
47    24    46    1
48    24    47    1
49    25    26    1
50    25    48    1
@<TRIPOS>SUBSTRUCTURE
1   ZINC000092019869 1     RESIDUE    1   A     ZIN   1
@<TRIPOS>MOLECULE
ZINC000095400595
  55   58    0    0    0
SMALL
USER_CHARGES
NO_NAME
@<TRIPOS>ATOM
    1 C1       -0.4339     1.4309    -1.4592 C.3    1 <0>      -0.1500
    2 C2       -0.3579    -0.0854    -1.2690 C.3    1 <0>       0.0600
    3 O3        0.4769    -0.6512    -2.2814 O.3    1 <0>      -0.3600
    4 C4        0.6157    -2.0707    -2.1940 C.3    1 <0>       0.0700
    5 H5        0.3733    -2.4599    -1.2051 H      1 <0>       0.0800
    6 C6       -0.0737    -2.8295    -3.3412 C.3    1 <0>      -0.1900
    7 C7        1.2484    -2.7014    -4.1175 C.3    1 <0>       0.0900
    8 H8        1.3175    -1.7929    -4.7159 H      1 <0>       0.0800
    9 O9        1.5984    -3.8770    -4.8506 O.3    1 <0>      -0.5500
   10 C10       1.9453    -2.5941    -2.7519 C.3    1 <0>      -0.0600
   11 C11       3.0695    -1.5603    -2.7219 C.3    1 <0>      -0.1100
   12 C12       4.2735    -2.1054    -3.4990 C.3    1 <0>       0.1100
   13 N13       4.6085    -3.4373    -2.9780 N.am   1 <0>      -0.6000
   14 C14       5.8511    -3.7030    -2.5289 C.2    1 <0>       0.5900
   15 O15       6.0952    -4.7781    -2.0153 O.2    1 <0>      -0.5500
   16 C16       6.9134    -2.6915    -2.6601 C.2    1 <0>      -0.2300
   17 C17       7.8581    -2.3658    -1.7263 C.2    1 <0>       0.1000
   18 C18       7.9992    -2.9878    -0.3609 C.3    1 <0>      -0.0900
   19 N19       8.6412    -1.3953    -2.2345 N.pl3  1 <0>      -0.4100
   20 C20       9.7709    -0.7788    -1.5347 C.3    1 <0>       0.0400
   21 C21      10.7847    -1.7123    -0.8699 C.3    1 <0>      -0.1700
   22 C22      11.1624    -0.9565    -2.1455 C.3    1 <0>      -0.1700
   23 C23       8.2323    -1.0685    -3.4946 C.2    1 <0>       0.0200
   24 C24       8.8654    -0.0253    -4.3787 C.3    1 <0>      -0.0800
   25 C25       7.1759    -1.8341    -3.8210 C.2    1 <0>      -0.1700
   26 C26       3.5696    -4.4753    -2.9531 C.3    1 <0>       0.1100
   27 C27       2.3610    -3.9451    -2.1728 C.3    1 <0>      -0.1000
   28 H28       0.5666     1.8570    -1.3851 H      1 <0>       0.0600
   29 H29      -0.8518     1.6534    -2.4410 H      1 <0>       0.0600
   30 H30      -1.0707     1.8624    -0.6869 H      1 <0>       0.0700
   31 H31       0.0600    -0.3079    -0.2872 H      1 <0>       0.0500
   32 H32      -1.3584    -0.5115    -1.3430 H      1 <0>       0.0500
   33 H33      -0.3344    -3.8576    -3.0899 H      1 <0>       0.1000
   34 H34      -0.9000    -2.2807    -3.7930 H      1 <0>       0.0800
   35 H35       1.1269    -3.9723    -5.6895 H      1 <0>       0.3800
   36 H36       2.7260    -0.6349    -3.1842 H      1 <0>       0.0800
   37 H37       3.3595    -1.3672    -1.6891 H      1 <0>       0.0700
   38 H38       4.0223    -2.1794    -4.5571 H      1 <0>       0.0700
   39 H39       5.1250    -1.4374    -3.3693 H      1 <0>       0.1000
   40 H40       8.6632    -3.8500    -0.4212 H      1 <0>       0.0800
   41 H41       8.4163    -2.2556     0.3306 H      1 <0>       0.0700
   42 H42       7.0200    -3.3075    -0.0043 H      1 <0>       0.0800
   43 H43       9.5564     0.1674    -1.0379 H      1 <0>       0.1300
   44 H44      11.2373    -1.3803     0.0644 H      1 <0>       0.1100
   45 H45      10.6110    -2.7851    -0.9533 H      1 <0>       0.1100
   46 H46      11.2372    -1.5322    -3.0681 H      1 <0>       0.1000
   47 H47      11.8635    -0.1274    -2.0503 H      1 <0>       0.1100
   48 H48       9.7073    -0.4647    -4.9138 H      1 <0>       0.0700
   49 H49       8.1294     0.3387    -5.0956 H      1 <0>       0.0800
   50 H50       9.2176     0.8049    -3.7663 H      1 <0>       0.0600
   51 H51       6.6255    -1.8159    -4.7500 H      1 <0>       0.1500
   52 H52       3.2691    -4.7161    -3.9729 H      1 <0>       0.0900
   53 H53       3.9573    -5.3687    -2.4636 H      1 <0>       0.0900
   54 H54       2.6293    -3.8247    -1.1232 H      1 <0>       0.0600
   55 H55       1.5335    -4.6492    -2.2600 H      1 <0>       0.0800
@<TRIPOS>BOND
   1    1    2 1
   2    1   28 1
   3    1   29 1
   4    1   30 1
   5    2    3 1
   6    2   31 1
   7    2   32 1
   8    3    4 1
   9    4    5 1
  10    4   10 1
  11    4    6 1
  12    6    7 1
  13    6   33 1
  14    6   34 1
  15    7    8 1
  16    7    9 1
  17    7   10 1
  18    9   35 1
  19   10   27 1
  20   10   11 1
  21   11   12 1
  22   11   36 1
  23   11   37 1
  24   12   13 1
  25   12   38 1
  26   12   39 1
  27   13   14 am
  28   13   26 1
  29   14   15 2
  30   14   16 1
  31   16   25 1
  32   16   17 2
  33   17   18 1
  34   17   19 1
  35   18   40 1
  36   18   41 1
  37   18   42 1
  38   19   20 1
  39   19   23 1
  40   20   22 1
  41   20   21 1
  42   20   43 1
  43   21   22 1
  44   21   44 1
  45   21   45 1
  46   22   46 1
  47   22   47 1
  48   23   24 1
  49   23   25 2
  50   24   48 1
  51   24   49 1
  52   24   50 1
  53   25   51 1
  54   26   27 1
  55   26   52 1
  56   26   53 1
  57   27   54 1
  58   27   55 1
@<TRIPOS>MOLECULE
ZINC000095400807
  49   52    0    0    0
SMALL
USER_CHARGES
NO_NAME
@<TRIPOS>ATOM
    1 C1        0.9439     1.9355    -0.3556 C.3    1 <0>      -0.1500
    2 C2        0.7113     0.4280    -0.2363 C.3    1 <0>       0.0600
    3 O3        1.2388    -0.2282    -1.3909 O.3    1 <0>      -0.3700
    4 C4        1.0725    -1.6475    -1.3796 C.3    1 <0>       0.0700
    5 H5        0.2859    -1.9763    -0.7005 H      1 <0>       0.0900
    6 C6        2.3918    -2.4218    -1.2160 C.3    1 <0>      -0.1900
    7 C7        1.8480    -3.4160    -2.2564 C.3    1 <0>       0.0900
    8 H8        1.2752    -4.2347    -1.8207 H      1 <0>       0.0800
    9 O9        2.8323    -3.8628    -3.1910 O.3    1 <0>      -0.5500
   10 C10       0.9743    -2.2662    -2.7798 C.3    1 <0>      -0.0600
   11 C11      -0.4402    -2.7007    -3.1591 C.3    1 <0>      -0.1200
   12 C12      -0.3863    -3.4990    -4.4670 C.3    1 <0>       0.1300
   13 N13       0.3372    -2.7100    -5.4727 N.pl3  1 <0>      -0.6000
   14 C14      -0.2536    -2.4149    -6.6962 C.ar   1 <0>       0.4100
   15 C15      -1.4331    -3.0526    -7.0614 C.ar   1 <0>      -0.2100
   16 C16      -2.0137    -2.7451    -8.2934 C.ar   1 <0>       0.0600
   17 C17      -3.2695    -3.3979    -8.7254 C.2    1 <0>       0.2200
   18 N18      -3.9113    -3.1984    -9.8618 N.2    1 <0>      -0.4600
   19 C19      -4.9859    -4.0010    -9.8141 C.2    1 <0>       0.1700
   20 C20      -6.0407    -4.1403   -10.8814 C.3    1 <0>      -0.0600
   21 N21      -4.9518    -4.6372    -8.6805 N.2    1 <0>      -0.3800
   22 O22      -3.9740    -4.3118    -8.0409 O.3    1 <0>       0.0900
   23 C23      -1.3761    -1.8019    -9.1093 C.ar   1 <0>      -0.1900
   24 C24      -0.2076    -1.2151    -8.6715 C.ar   1 <0>       0.1600
   25 N25       0.3107    -1.5254    -7.4984 N.ar   1 <0>      -0.5300
   26 C26       1.6937    -2.2367    -5.1671 C.3    1 <0>       0.1200
   27 C27       1.6530    -1.4306    -3.8635 C.3    1 <0>      -0.0900
   28 H28       2.0133     2.1334    -0.4292 H      1 <0>       0.0600
   29 H29       0.4427     2.3110    -1.2478 H      1 <0>       0.0600
   30 H30       0.5415     2.4361     0.5251 H      1 <0>       0.0700
   31 H31       1.2125     0.0525     0.6558 H      1 <0>       0.0500
   32 H32      -0.3581     0.2301    -0.1627 H      1 <0>       0.0500
   33 H33       3.2674    -1.8690    -1.5566 H      1 <0>       0.1000
   34 H34       2.5233    -2.8556    -0.2247 H      1 <0>       0.0700
   35 H35       3.4141    -4.5552    -2.8487 H      1 <0>       0.3800
   36 H36      -0.8541    -3.3254    -2.3676 H      1 <0>       0.0800
   37 H37      -1.0677    -1.8199    -3.2954 H      1 <0>       0.0700
   38 H38       0.1343    -4.4418    -4.2984 H      1 <0>       0.0700
   39 H39      -1.3996    -3.6961    -4.8168 H      1 <0>       0.0800
   40 H40      -1.8930    -3.7746    -6.4030 H      1 <0>       0.1400
   41 H41      -5.7515    -4.9276   -11.5776 H      1 <0>       0.0900
   42 H42      -6.9939    -4.3964   -10.4189 H      1 <0>       0.0900
   43 H43      -6.1397    -3.1976   -11.4196 H      1 <0>       0.0900
   44 H44      -1.7942    -1.5379   -10.0695 H      1 <0>       0.1500
   45 H45       0.2887    -0.4874    -9.2965 H      1 <0>       0.1700
   46 H46       2.3605    -3.0907    -5.0479 H      1 <0>       0.0900
   47 H47       2.0507    -1.6021    -5.9782 H      1 <0>       0.0900
   48 H48       1.0894    -0.5111    -4.0211 H      1 <0>       0.0700
   49 H49       2.6694    -1.1877    -3.5534 H      1 <0>       0.0800
@<TRIPOS>BOND
   1    1    2 1
   2    1   28 1
   3    1   29 1
   4    1   30 1
   5    2    3 1
   6    2   31 1
   7    2   32 1
   8    3    4 1
   9    4    5 1
  10    4   10 1
  11    4    6 1
  12    6    7 1
  13    6   33 1
  14    6   34 1
  15    7    8 1
  16    7    9 1
  17    7   10 1
  18    9   35 1
  19   10   27 1
  20   10   11 1
  21   11   12 1
  22   11   36 1
  23   11   37 1
  24   12   13 1
  25   12   38 1
  26   12   39 1
  27   13   14 1
  28   13   26 1
  29   14   25 ar
  30   14   15 ar
  31   15   16 ar
  32   15   40 1
  33   16   17 1
  34   16   23 ar
  35   17   22 1
  36   17   18 2
  37   18   19 1
  38   19   20 1
  39   19   21 2
  40   20   41 1
  41   20   42 1
  42   20   43 1
  43   21   22 1
  44   23   24 ar
  45   23   44 1
  46   24   25 ar
  47   24   45 1
  48   26   27 1
  49   26   46 1
  50   26   47 1
  51   27   48 1
  52   27   49 1
@<TRIPOS>MOLECULE
ZINC000096132188
  45   47    0    0    0
SMALL
USER_CHARGES
NO_NAME
@<TRIPOS>ATOM
    1 C1        1.7615    -0.2120     1.3344 C.3    1 <0>      -0.0800
    2 C2        0.7588    -0.7440     0.3431 C.2    1 <0>       0.0300
    3 N3       -0.1015    -1.6666     0.5951 N.2    1 <0>      -0.4600
    4 C4       -0.9066    -2.0024    -0.4169 C.2    1 <0>       0.0500
    5 C5       -1.9473    -3.0350    -0.3081 C.2    1 <0>       0.5000
    6 N6       -2.6974    -3.3079    -1.3626 N.2    1 <0>      -0.5300
    7 C7       -3.6479    -4.2288    -1.3180 C.2    1 <0>       0.2100
    8 C8       -3.8738    -4.9354    -0.1363 C.2    1 <0>      -0.3000
    9 C9       -4.9220    -5.9615    -0.0632 C.2    1 <0>       0.5900
   10 O10      -4.6275    -7.1390    -0.1483 O.2    1 <0>      -0.5000
   11 N11      -6.2099    -5.5989     0.0982 N.am   1 <0>      -0.6100
   12 C12      -6.5767    -4.1805     0.1017 C.3    1 <0>       0.0800
   13 C13      -7.2433    -6.6230     0.2700 C.3    1 <0>       0.1700
   14 C14      -7.4085    -6.9289     1.7364 C.ar   1 <0>       0.1100
   15 C15      -8.3946    -6.2869     2.4610 C.ar   1 <0>      -0.1700
   16 C16      -8.5386    -6.5758     3.8096 C.ar   1 <0>      -0.0400
   17 C17      -9.6019    -5.8977     4.6345 C.3    1 <0>      -0.1200
   18 C18      -7.6814    -7.5036     4.3808 C.ar   1 <0>      -0.1700
   19 C19      -6.7185    -8.1056     3.5927 C.ar   1 <0>       0.1400
   20 C20      -5.7816    -9.1160     4.2029 C.3    1 <0>      -0.1100
   21 N21      -6.6138    -7.8101     2.3120 N.ar   1 <0>      -0.4600
   22 C22      -3.0654    -4.6393     0.9955 C.2    1 <0>       0.5400
   23 O23      -3.2267    -5.2308     2.0482 O.2    1 <0>      -0.5100
   24 N24      -2.1114    -3.6912     0.8755 N.am   1 <0>      -0.6100
   25 C25      -0.6738    -1.3017    -1.5520 C.2    1 <0>      -0.2100
   26 S26       0.6024    -0.2005    -1.2681 S.3    1 <0>       0.2500
   27 H27       2.3624     0.5650     0.8619 H      1 <0>       0.0900
   28 H28       1.2365     0.2065     2.1931 H      1 <0>       0.0900
   29 H29       2.4106    -1.0227     1.6652 H      1 <0>       0.0900
   30 H30      -4.2466    -4.4320    -2.1936 H      1 <0>       0.1800
   31 H31      -6.8423    -3.8714    -0.9092 H      1 <0>       0.0600
   32 H32      -7.4286    -4.0271     0.7642 H      1 <0>       0.0700
   33 H33      -5.7320    -3.5877     0.4529 H      1 <0>       0.0700
   34 H34      -8.1876    -6.2577    -0.1336 H      1 <0>       0.1000
   35 H35      -6.9483    -7.5292    -0.2591 H      1 <0>       0.1100
   36 H36      -9.0447    -5.5691     1.9831 H      1 <0>       0.1300
   37 H37     -10.5182    -6.4871     4.6017 H      1 <0>       0.0800
   38 H38      -9.2617    -5.8122     5.6665 H      1 <0>       0.0700
   39 H39      -9.7949    -4.9033     4.2320 H      1 <0>       0.0700
   40 H40      -7.7646    -7.7526     5.4284 H      1 <0>       0.1300
   41 H41      -6.2161   -10.1121     4.1180 H      1 <0>       0.0800
   42 H42      -4.8270    -9.0900     3.6775 H      1 <0>       0.0800
   43 H43      -5.6241    -8.8768     5.2546 H      1 <0>       0.0700
   44 H44      -1.5474    -3.4721     1.6337 H      1 <0>       0.4300
   45 H45      -1.2097    -1.4166    -2.4827 H      1 <0>       0.2000
@<TRIPOS>BOND
   1    1    2 1
   2    1   27 1
   3    1   28 1
   4    1   29 1
   5    2   26 1
   6    2    3 2
   7    3    4 1
   8    4    5 1
   9    4   25 2
  10    5   24 1
  11    5    6 2
  12    6    7 1
  13    7    8 2
  14    7   30 1
  15    8    9 1
  16    8   22 1
  17    9   10 2
  18    9   11 am
  19   11   12 1
  20   11   13 1
  21   12   31 1
  22   12   32 1
  23   12   33 1
  24   13   14 1
  25   13   34 1
  26   13   35 1
  27   14   21 ar
  28   14   15 ar
  29   15   16 ar
  30   15   36 1
  31   16   17 1
  32   16   18 ar
  33   17   37 1
  34   17   38 1
  35   17   39 1
  36   18   19 ar
  37   18   40 1
  38   19   20 1
  39   19   21 ar
  40   20   41 1
  41   20   42 1
  42   20   43 1
  43   22   23 2
  44   22   24 am
  45   24   44 1
  46   25   26 1
  47   25   45 1

@<TRIPOS>MOLECULE
ZINC000096132188
  44   46    0    0    0
SMALL
USER_CHARGES
NO_NAME
@<TRIPOS>ATOM
    1 C1        1.7615    -0.2120     1.3344 C.3    1 <0>      -0.0700
    2 C2        0.7588    -0.7440     0.3431 C.2    1 <0>       0.0200
    3 N3       -0.1015    -1.6666     0.5951 N.2    1 <0>      -0.4200
    4 C4       -0.9066    -2.0024    -0.4169 C.2    1 <0>       0.1300
    5 C5       -1.9473    -3.0350    -0.3081 C.2    1 <0>       0.4000
    6 N6       -2.6974    -3.3079    -1.3626 N.2    1 <0>      -0.6100
    7 C7       -3.6479    -4.2288    -1.3180 C.2    1 <0>       0.1900
    8 C8       -3.8738    -4.9354    -0.1363 C.2    1 <0>      -0.4000
    9 C9       -4.9220    -5.9615    -0.0632 C.2    1 <0>       0.6100
   10 O10      -4.6275    -7.1390    -0.1483 O.2    1 <0>      -0.5300
   11 N11      -6.2099    -5.5989     0.0982 N.am   1 <0>      -0.6200
   12 C12      -6.5767    -4.1805     0.1017 C.3    1 <0>       0.0900
   13 C13      -7.2433    -6.6230     0.2700 C.3    1 <0>       0.1700
   14 C14      -7.4085    -6.9289     1.7364 C.ar   1 <0>       0.1200
   15 C15      -8.3946    -6.2869     2.4610 C.ar   1 <0>      -0.1700
   16 C16      -8.5386    -6.5758     3.8096 C.ar   1 <0>      -0.0500
   17 C17      -9.6019    -5.8977     4.6345 C.3    1 <0>      -0.1100
   18 C18      -7.6814    -7.5036     4.3808 C.ar   1 <0>      -0.1800
   19 C19      -6.7185    -8.1056     3.5927 C.ar   1 <0>       0.1400
   20 C20      -5.7816    -9.1160     4.2029 C.3    1 <0>      -0.1000
   21 N21      -6.6138    -7.8101     2.3120 N.ar   1 <0>      -0.4500
   22 C22      -3.0654    -4.6393     0.9955 C.2    1 <0>       0.5100
   23 O23      -3.2267    -5.2308     2.0482 O.2    1 <0>      -0.6000
   24 N24      -2.1114    -3.6912     0.8755 N.pl3  1 <0>      -0.6000
   25 C25      -0.6738    -1.3017    -1.5520 C.2    1 <0>      -0.2400
   26 S26       0.6024    -0.2005    -1.2681 S.3    1 <0>       0.1400
   27 H27       2.3624     0.5650     0.8619 H      1 <0>       0.0700
   28 H28       1.2365     0.2065     2.1931 H      1 <0>       0.0800
   29 H29       2.4106    -1.0227     1.6652 H      1 <0>       0.0800
   30 H30      -4.2466    -4.4320    -2.1936 H      1 <0>       0.1300
   31 H31      -6.8423    -3.8714    -0.9092 H      1 <0>       0.0500
   32 H32      -7.4286    -4.0271     0.7642 H      1 <0>       0.0600
   33 H33      -5.7320    -3.5877     0.4529 H      1 <0>       0.0700
   34 H34      -8.1876    -6.2577    -0.1336 H      1 <0>       0.0900
   35 H35      -6.9483    -7.5292    -0.2591 H      1 <0>       0.1000
   36 H36      -9.0447    -5.5691     1.9831 H      1 <0>       0.1300
   37 H37     -10.5182    -6.4871     4.6017 H      1 <0>       0.0700
   38 H38      -9.2617    -5.8122     5.6665 H      1 <0>       0.0700
   39 H39      -9.7949    -4.9033     4.2320 H      1 <0>       0.0700
   40 H40      -7.7646    -7.7526     5.4284 H      1 <0>       0.1300
   41 H41      -6.2161   -10.1121     4.1180 H      1 <0>       0.0700
   42 H42      -4.8270    -9.0900     3.6775 H      1 <0>       0.0800
   43 H43      -5.6241    -8.8768     5.2546 H      1 <0>       0.0700
   44 H44      -1.2097    -1.4166    -2.4827 H      1 <0>       0.1900
@<TRIPOS>BOND
   1    1    2 1
   2    1   27 1
   3    1   28 1
   4    1   29 1
   5    2   26 1
   6    2    3 2
   7    3    4 1
   8    4    5 1
   9    4   25 2
  10    5   24 1
  11    5    6 2
  12    6    7 1
  13    7    8 2
  14    7   30 1
  15    8    9 1
  16    8   22 1
  17    9   10 2
  18    9   11 am
  19   11   12 1
  20   11   13 1
  21   12   31 1
  22   12   32 1
  23   12   33 1
  24   13   14 1
  25   13   34 1
  26   13   35 1
  27   14   21 ar
  28   14   15 ar
  29   15   16 ar
  30   15   36 1
  31   16   17 1
  32   16   18 ar
  33   17   37 1
  34   17   38 1
  35   17   39 1
  36   18   19 ar
  37   18   40 1
  38   19   20 1
  39   19   21 ar
  40   20   41 1
  41   20   42 1
  42   20   43 1
  43   22   23 2
  44   22   24 1
  45   25   26 1
  46   25   44 1
@<TRIPOS>MOLECULE
ZINC000095963770
36    37    1     0     0
SMALL
USER_CHARGES
@<TRIPOS>ATOM
1      C1     -0.5310    1.6158    0.1577 C.3      1 ZINC000095963770   -0.1900
2      C2      0.0472    0.1999    0.1175 C.3      1 ZINC000095963770    0.0800
3      N3      0.8278   -0.0435    1.3331 N.am     1 ZINC000095963770   -0.5900
4      C4      0.2083   -0.4307    2.4656 C.2      1 ZINC000095963770    0.5900
5      O5      0.8541   -0.6121    3.4810 O.2      1 ZINC000095963770   -0.5300
6      C6     -1.2443   -0.6334    2.4744 C.2      1 ZINC000095963770   -0.0400
7      C7     -2.1232   -0.2747    1.4743 C.2      1 ZINC000095963770   -0.1300
8      C8     -3.4024   -0.6515    1.8964 C.2      1 ZINC000095963770   -0.1800
9      Br9    -5.0100   -0.4094    0.9306 Br       1 ZINC000095963770   -0.0200
10     C10    -3.2849   -1.2213    3.1202 C.2      1 ZINC000095963770    0.0600
11     N11    -1.9775   -1.2216    3.4799 N.pl3    1 ZINC000095963770   -0.4000
12     C12    -1.4365   -1.7508    4.7343 C.3      1 ZINC000095963770    0.1000
13     C13    -1.1861   -0.5978    5.7084 C.3      1 ZINC000095963770   -0.1600
14     C14     2.2820    0.1341    1.3175 C.3      1 ZINC000095963770    0.1200
15     H15     2.6170    0.4596    0.3327 H        1 ZINC000095963770    0.1500
16     C16     2.9926   -1.1715    1.7286 C.3      1 ZINC000095963770   -0.1600
17     C17     3.7469   -0.7852    2.9822 C.2      1 ZINC000095963770    0.5500
18     O18     4.4468   -1.5272    3.6373 O.2      1 ZINC000095963770   -0.4800
19     N19     3.5191    0.5059    3.2530 N.am     1 ZINC000095963770   -0.6700
20     C20     2.7090    1.1240    2.3793 C.2      1 ZINC000095963770    0.5300
21     O21     2.3727    2.2873    2.4353 O.2      1 ZINC000095963770   -0.4700
22     H22     0.2815    2.3413    0.1185 H        1 ZINC000095963770    0.0700
23     H23    -1.1911    1.7631   -0.6972 H        1 ZINC000095963770    0.0800
24     H24    -1.0954    1.7518    1.0802 H        1 ZINC000095963770    0.0700
25     H25    -0.7663   -0.5232    0.0573 H        1 ZINC000095963770    0.1100
26     H26     0.6917    0.0952   -0.7553 H        1 ZINC000095963770    0.0900
27     H27    -1.8713    0.2066    0.5408 H        1 ZINC000095963770    0.1800
28     H28    -4.0990   -1.6152    3.7106 H        1 ZINC000095963770    0.1800
29     H29    -2.1507   -2.4480    5.1724 H        1 ZINC000095963770    0.1000
30     H30    -0.4983   -2.2688    4.5355 H        1 ZINC000095963770    0.1000
31     H31    -0.5445    0.1451    5.2347 H        1 ZINC000095963770    0.0700
32     H32    -2.1365   -0.1377    5.9788 H        1 ZINC000095963770    0.0600
33     H33    -0.6989   -0.9796    6.6056 H        1 ZINC000095963770    0.0800
34     H34     2.2643   -1.9531    1.9446 H        1 ZINC000095963770    0.1200
35     H35     3.6832   -1.4941    0.9494 H        1 ZINC000095963770    0.1300
36     H36     3.9087    0.9586    4.0173 H        1 ZINC000095963770    0.4200
@<TRIPOS>BOND
1     1     2     1
2     1     22    1
3     1     23    1
4     1     24    1
5     2     3     1
6     2     25    1
7     2     26    1
8     3     4     am
9     3     14    1
10    4     5     2
11    4     6     1
12    6     11    1
13    6     7     2
14    7     8     1
15    7     27    1
16    8     9     1
17    8     10    2
18    10    11    1
19    10    28    1
20    11    12    1
21    12    13    1
22    12    29    1
23    12    30    1
24    13    31    1
25    13    32    1
26    13    33    1
27    14    15    1
28    14    20    1
29    14    16    1
30    16    17    1
31    16    34    1
32    16    35    1
33    17    18    2
34    17    19    am
35    19    20    am
36    19    36    1
37    20    21    2
@<TRIPOS>SUBSTRUCTURE
1   ZINC000095963770 1     RESIDUE    1   A     ZIN   1
@<TRIPOS>MOLECULE
ZINC000097013341
39    41    1     0     0
SMALL
USER_CHARGES
@<TRIPOS>ATOM
1      C1     -1.1294   -1.3768   -4.5258 C.3      1 ZINC000097013341   -0.6600
2      S2      0.0269   -0.0508   -4.9678 S.o2     1 ZINC000097013341    2.4800
3      O3      1.1529   -0.5795   -5.6548 O.2      1 ZINC000097013341   -0.9400
4      O4     -0.6762    1.0763   -5.4723 O.2      1 ZINC000097013341   -0.8700
5      C5      0.6775    0.4977   -3.4249 C.ar     1 ZINC000097013341   -0.5500
6      C6      2.0408    0.4665   -3.1995 C.ar     1 ZINC000097013341   -0.0300
7      C7      2.5512    0.8969   -1.9888 C.ar     1 ZINC000097013341   -0.0800
8      C8      1.6983    1.3587   -1.0042 C.ar     1 ZINC000097013341   -0.0900
9      C9      0.3347    1.3907   -1.2300 C.ar     1 ZINC000097013341   -0.0300
10     C10    -0.1753    0.9645   -2.4419 C.ar     1 ZINC000097013341   -0.5800
11     S11    -1.9131    1.0054   -2.7297 S.o2     1 ZINC000097013341    2.6400
12     O12    -2.4288    2.0558   -1.9235 O.2      1 ZINC000097013341   -0.9300
13     O13    -2.0878    0.9497   -4.1389 O.2      1 ZINC000097013341   -0.9100
14     N14    -2.5434   -0.4013   -2.1244 N.am     1 ZINC000097013341   -1.1000
15     C15    -2.3761   -0.7284   -0.7063 C.3      1 ZINC000097013341    0.2400
16     H16    -1.9473    0.1246   -0.1803 H        1 ZINC000097013341    0.1200
17     C17    -3.7367   -1.0840   -0.0930 C.3      1 ZINC000097013341   -0.1400
18     C18    -3.5208   -1.6991    1.2929 C.3      1 ZINC000097013341   -0.1400
19     C19    -2.8702   -3.0792    1.1444 C.3      1 ZINC000097013341    0.1200
20     N20    -1.7072   -2.9594    0.2650 N.pl3    1 ZINC000097013341   -0.3700
21     N21    -0.6449   -3.8536    0.1065 N.2      1 ZINC000097013341   -0.3100
22     C22     0.1581   -3.3262   -0.7836 C.2      1 ZINC000097013341    0.2000
23     N23    -0.3460   -2.1575   -1.1854 N.2      1 ZINC000097013341   -0.5200
24     C24    -1.4666   -1.9243   -0.5634 C.2      1 ZINC000097013341    0.2500
25     H25    -0.6288   -2.0933   -3.8746 H        1 ZINC000097013341    0.1400
26     H26    -1.9881   -0.9518   -4.0063 H        1 ZINC000097013341    0.1200
27     H27    -1.4660   -1.8821   -5.4311 H        1 ZINC000097013341    0.1400
28     H28     2.7072    0.1056   -3.9689 H        1 ZINC000097013341    0.1500
29     H29     3.6164    0.8718   -1.8124 H        1 ZINC000097013341    0.1400
30     H30     2.0970    1.6942   -0.0582 H        1 ZINC000097013341    0.1400
31     H31    -0.3318    1.7513   -0.4605 H        1 ZINC000097013341    0.1400
32     H32    -3.0235   -1.0086   -2.7089 H        1 ZINC000097013341    0.4300
33     H33    -4.3413   -0.1818   -0.0006 H        1 ZINC000097013341    0.1000
34     H34    -4.2485   -1.8018   -0.7341 H        1 ZINC000097013341    0.0900
35     H35    -2.8695   -1.0518    1.8802 H        1 ZINC000097013341    0.0800
36     H36    -4.4812   -1.8027    1.7980 H        1 ZINC000097013341    0.1100
37     H37    -2.5530   -3.4409    2.1225 H        1 ZINC000097013341    0.1000
38     H38    -3.5868   -3.7761    0.7096 H        1 ZINC000097013341    0.0900
39     H39     1.0794   -3.7661   -1.1359 H        1 ZINC000097013341    0.2200
@<TRIPOS>BOND
1     1     2     1
2     1     25    1
3     1     26    1
4     1     27    1
5     2     3     2
6     2     4     2
7     2     5     1
8     5     10    ar
9     5     6     ar
10    6     7     ar
11    6     28    1
12    7     8     ar
13    7     29    1
14    8     9     ar
15    8     30    1
16    9     10    ar
17    9     31    1
18    10    11    1
19    11    12    2
20    11    13    2
21    11    14    am
22    14    15    1
23    14    32    1
24    15    16    1
25    15    24    1
26    15    17    1
27    17    18    1
28    17    33    1
29    17    34    1
30    18    19    1
31    18    35    1
32    18    36    1
33    19    20    1
34    19    37    1
35    19    38    1
36    20    24    1
37    20    21    1
38    21    22    2
39    22    23    1
40    22    39    1
41    23    24    2
@<TRIPOS>SUBSTRUCTURE
1   ZINC000097013341 1     RESIDUE    1   A     ZIN   1

@<TRIPOS>MOLECULE
ZINC000097013341
38    40    1     0     0
SMALL
USER_CHARGES
@<TRIPOS>ATOM
1      C1      1.0922    1.5769    0.5765 C.3      1 ZINC000097013341   -0.6500
2      S2      0.1033    0.1666    0.0076 S.o2     1 ZINC000097013341    2.4400
3      O3      0.3472   -0.9735    0.8201 O.2      1 ZINC000097013341   -0.9600
4      O4     -1.2219    0.5779   -0.2987 O.2      1 ZINC000097013341   -0.8200
5      C5      0.7991   -0.2565   -1.5549 C.ar     1 ZINC000097013341   -0.5600
6      C6      1.9870   -0.9605   -1.6146 C.ar     1 ZINC000097013341   -0.0600
7      C7      2.5330   -1.2924   -2.8406 C.ar     1 ZINC000097013341   -0.1200
8      C8      1.8907   -0.9207   -4.0066 C.ar     1 ZINC000097013341   -0.1000
9      C9      0.7019   -0.2173   -3.9469 C.ar     1 ZINC000097013341   -0.0600
10     C10     0.1539    0.1108   -2.7212 C.ar     1 ZINC000097013341   -0.5200
11     S11    -1.3611    1.0073   -2.6451 S.o2     1 ZINC000097013341    2.5800
12     O12    -1.1452    2.0844   -1.7437 O.2      1 ZINC000097013341   -0.9600
13     O13    -1.7863    1.1914   -3.9884 O.2      1 ZINC000097013341   -1.0700
14     N14    -2.4809    0.0177   -1.9316 N.pl3    1 ZINC000097013341   -1.1000
15     C15    -3.8524    0.4907   -1.7280 C.3      1 ZINC000097013341    0.2500
16     H16    -4.3013    0.7416   -2.6891 H        1 ZINC000097013341    0.0300
17     C17    -4.6802   -0.6025   -1.0397 C.3      1 ZINC000097013341   -0.0900
18     C18    -6.0119   -0.0082   -0.5715 C.3      1 ZINC000097013341   -0.1400
19     C19    -5.7583    0.9699    0.5814 C.3      1 ZINC000097013341    0.1400
20     N20    -4.7003    1.8997    0.1860 N.pl3    1 ZINC000097013341   -0.3900
21     N21    -4.3698    3.1307    0.7595 N.2      1 ZINC000097013341   -0.3600
22     C22    -3.3603    3.6041    0.0723 C.2      1 ZINC000097013341    0.1800
23     N23    -3.0468    2.7372   -0.8929 N.2      1 ZINC000097013341   -0.4700
24     C24    -3.8440    1.7085   -0.8365 C.2      1 ZINC000097013341    0.2800
25     H25     2.1303    1.2675    0.6976 H        1 ZINC000097013341    0.1100
26     H26     1.0358    2.3801   -0.1581 H        1 ZINC000097013341    0.1400
27     H27     0.7046    1.9306    1.5320 H        1 ZINC000097013341    0.1200
28     H28     2.4890   -1.2509   -0.7035 H        1 ZINC000097013341    0.1300
29     H29     3.4616   -1.8419   -2.8873 H        1 ZINC000097013341    0.1300
30     H30     2.3175   -1.1794   -4.9644 H        1 ZINC000097013341    0.1300
31     H31     0.2002    0.0735   -4.8580 H        1 ZINC000097013341    0.1400
32     H32    -4.8706   -1.4125   -1.7438 H        1 ZINC000097013341    0.0700
33     H33    -4.1314   -0.9878   -0.1804 H        1 ZINC000097013341    0.0700
34     H34    -6.4847    0.5205   -1.3991 H        1 ZINC000097013341    0.0700
35     H35    -6.6674   -0.8095   -0.2306 H        1 ZINC000097013341    0.0800
36     H36    -6.6712    1.5252    0.7969 H        1 ZINC000097013341    0.0800
37     H37    -5.4467    0.4172    1.4677 H        1 ZINC000097013341    0.0700
38     H38    -2.8618    4.5442    0.2571 H        1 ZINC000097013341    0.2000
@<TRIPOS>BOND
1     1     2     1
2     1     25    1
3     1     26    1
4     1     27    1
5     2     3     2
6     2     4     2
7     2     5     1
8     5     10    ar
9     5     6     ar
10    6     7     ar
11    6     28    1
12    7     8     ar
13    7     29    1
14    8     9     ar
15    8     30    1
16    9     10    ar
17    9     31    1
18    10    11    1
19    11    12    2
20    11    13    2
21    11    14    1
22    14    15    1
23    15    16    1
24    15    24    1
25    15    17    1
26    17    18    1
27    17    32    1
28    17    33    1
29    18    19    1
30    18    34    1
31    18    35    1
32    19    20    1
33    19    36    1
34    19    37    1
35    20    24    1
36    20    21    1
37    21    22    2
38    22    23    1
39    22    38    1
40    23    24    2
@<TRIPOS>SUBSTRUCTURE
1   ZINC000097013341 1     RESIDUE    1   A     ZIN   1
@<TRIPOS>MOLECULE
ZINC000097218354
47    49    1     0     0
SMALL
USER_CHARGES
@<TRIPOS>ATOM
1      C1     -0.7565   -7.4624   -0.7956 C.3      1 ZINC000097218354    0.0300
2      N2     -0.3245   -6.1033   -0.4431 N.3      1 ZINC000097218354   -0.5700
3      C3      0.6879   -6.1323    0.6112 C.3      1 ZINC000097218354    0.0700
4      C4      1.6816   -5.0166    0.3740 C.3      1 ZINC000097218354   -0.1300
5      C5      1.2420   -3.7605    1.1449 C.3      1 ZINC000097218354    0.0900
6      N6     -0.2205   -3.5731    1.0752 N.am     1 ZINC000097218354   -0.6000
7      C7     -0.8788   -3.1910    2.1875 C.2      1 ZINC000097218354    0.5600
8      O8     -2.0733   -2.9708    2.1414 O.2      1 ZINC000097218354   -0.5300
9      C9     -0.1480   -3.0399    3.4638 C.ar     1 ZINC000097218354   -0.1000
10     C10     1.0549   -2.3330    3.5032 C.ar     1 ZINC000097218354   -0.1200
11     C11     1.7317   -2.1953    4.6975 C.ar     1 ZINC000097218354   -0.0300
12     C12     1.2206   -2.7563    5.8544 C.ar     1 ZINC000097218354   -0.5900
13     S13     2.0916   -2.5761    7.3755 S.o2     1 ZINC000097218354    2.6000
14     O14     1.6766   -3.6523    8.2054 O.2      1 ZINC000097218354   -1.0200
15     O15     3.4501   -2.3370    7.0341 O.2      1 ZINC000097218354   -1.0200
16     N16     1.5396   -1.1906    8.0953 N.pl3    1 ZINC000097218354   -1.0800
17     C17     2.0558   -0.7919    9.3246 C.ar     1 ZINC000097218354    0.3000
18     C18     3.0427   -1.5424    9.9636 C.ar     1 ZINC000097218354   -0.3200
19     C19     3.5282   -1.1127   11.1806 C.ar     1 ZINC000097218354    0.1300
20     N20     3.0710   -0.0080   11.7398 N.ar     1 ZINC000097218354   -0.5600
21     C21     2.1379    0.7294   11.1671 C.ar     1 ZINC000097218354    0.1100
22     C22     1.6040    0.3716    9.9470 C.ar     1 ZINC000097218354   -0.2300
23     C23     0.0285   -3.4578    5.8223 C.ar     1 ZINC000097218354   -0.0300
24     C24    -0.6609   -3.5984    4.6356 C.ar     1 ZINC000097218354   -0.0900
25     C25    -0.9753   -3.7837   -0.1434 C.3      1 ZINC000097218354    0.1200
26     C26    -1.4376   -5.2592   -0.2216 C.3      1 ZINC000097218354    0.0600
27     H27    -1.2963   -7.4381   -1.7422 H        1 ZINC000097218354    0.0700
28     H28     0.1167   -8.1077   -0.8918 H        1 ZINC000097218354    0.0700
29     H29    -1.4103   -7.8500   -0.0143 H        1 ZINC000097218354    0.0200
30     H30     0.2087   -5.9935    1.5804 H        1 ZINC000097218354    0.0400
31     H31     1.2055   -7.0913    0.5933 H        1 ZINC000097218354    0.0700
32     H32     2.6669   -5.3286    0.7203 H        1 ZINC000097218354    0.0800
33     H33     1.7265   -4.7913   -0.6915 H        1 ZINC000097218354    0.0800
34     H34     1.5398   -3.8599    2.1887 H        1 ZINC000097218354    0.0900
35     H35     1.7345   -2.8879    0.7159 H        1 ZINC000097218354    0.0700
36     H36     1.4553   -1.8953    2.6007 H        1 ZINC000097218354    0.1300
37     H37     2.6625   -1.6486    4.7294 H        1 ZINC000097218354    0.1400
38     H38     3.4210   -2.4474    9.5118 H        1 ZINC000097218354    0.1000
39     H39     4.2922   -1.6877   11.6829 H        1 ZINC000097218354    0.1300
40     H40     1.7912    1.6265   11.6583 H        1 ZINC000097218354    0.1400
41     H41     0.8411    0.9796    9.4837 H        1 ZINC000097218354    0.1200
42     H42    -0.3652   -3.8930    6.7290 H        1 ZINC000097218354    0.1400
43     H43    -1.5915   -4.1459    4.6119 H        1 ZINC000097218354    0.1300
44     H44    -1.8471   -3.1294   -0.1478 H        1 ZINC000097218354    0.0900
45     H45    -0.3464   -3.5545   -1.0037 H        1 ZINC000097218354    0.0900
46     H46    -2.1469   -5.3732   -1.0413 H        1 ZINC000097218354    0.0800
47     H47    -1.9215   -5.5368    0.7148 H        1 ZINC000097218354    0.0300
@<TRIPOS>BOND
1     1     2     1
2     1     27    1
3     1     28    1
4     1     29    1
5     2     26    1
6     2     3     1
7     3     4     1
8     3     30    1
9     3     31    1
10    4     5     1
11    4     32    1
12    4     33    1
13    5     6     1
14    5     34    1
15    5     35    1
16    6     7     am
17    6     25    1
18    7     8     2
19    7     9     1
20    9     24    ar
21    9     10    ar
22    10    11    ar
23    10    36    1
24    11    12    ar
25    11    37    1
26    12    13    1
27    12    23    ar
28    13    14    2
29    13    15    2
30    13    16    1
31    16    17    1
32    17    22    ar
33    17    18    ar
34    18    19    ar
35    18    38    1
36    19    20    ar
37    19    39    1
38    20    21    ar
39    21    22    ar
40    21    40    1
41    22    41    1
42    23    24    ar
43    23    42    1
44    24    43    1
45    25    26    1
46    25    44    1
47    25    45    1
48    26    46    1
49    26    47    1
@<TRIPOS>SUBSTRUCTURE
1   ZINC000097218354 1     RESIDUE    1   A     ZIN   1

@<TRIPOS>MOLECULE
ZINC000097218354
49    51    1     0     0
SMALL
USER_CHARGES
@<TRIPOS>ATOM
1      C1     -0.5097   -4.4703    3.9040 C.3      1 ZINC000097218354   -0.0500
2      N2      0.7909   -3.8350    3.6535 N.4      1 ZINC000097218354   -0.3700
3      H3      1.1931   -3.5753    4.5417 H        1 ZINC000097218354    0.4200
4      C4      1.6686   -4.8159    3.0192 C.3      1 ZINC000097218354   -0.0100
5      C5      3.1042   -4.5133    3.3875 C.3      1 ZINC000097218354   -0.1600
6      C6      3.7348   -3.6225    2.3017 C.3      1 ZINC000097218354    0.0800
7      N7      2.7763   -2.6038    1.8278 N.am     1 ZINC000097218354   -0.6200
8      C8      2.7127   -2.3354    0.5085 C.2      1 ZINC000097218354    0.5600
9      O9      1.8641   -1.5764    0.0829 O.2      1 ZINC000097218354   -0.5000
10     C10     3.6751   -2.9644   -0.4210 C.ar     1 ZINC000097218354   -0.0900
11     C11     3.2826   -3.2940   -1.7192 C.ar     1 ZINC000097218354   -0.0800
12     C12     4.1857   -3.8803   -2.5817 C.ar     1 ZINC000097218354   -0.0200
13     C13     5.4779   -4.1419   -2.1622 C.ar     1 ZINC000097218354   -0.6500
14     S14     6.6249   -4.8914   -3.2700 S.o2     1 ZINC000097218354    2.6900
15     O15     7.5408   -5.6218   -2.4657 O.2      1 ZINC000097218354   -0.9400
16     O16     5.8535   -5.4860   -4.3047 O.2      1 ZINC000097218354   -0.9300
17     N17     7.4931   -3.6710   -3.9765 N.am     1 ZINC000097218354   -1.0500
18     C18     6.8557   -2.7543   -4.8073 C.ar     1 ZINC000097218354    0.1800
19     C19     5.9518   -3.1790   -5.7809 C.ar     1 ZINC000097218354   -0.2100
20     C20     5.3410   -2.2388   -6.5837 C.ar     1 ZINC000097218354    0.1200
21     N21     5.6026   -0.9531   -6.4393 N.ar     1 ZINC000097218354   -0.4900
22     C22     6.4515   -0.5116   -5.5301 C.ar     1 ZINC000097218354    0.1200
23     C23     7.0999   -1.3867   -4.6843 C.ar     1 ZINC000097218354   -0.1800
24     C24     5.8736   -3.8172   -0.8768 C.ar     1 ZINC000097218354   -0.0200
25     C25     4.9819   -3.2257   -0.0060 C.ar     1 ZINC000097218354   -0.1200
26     C26     1.9017   -1.8831    2.7299 C.3      1 ZINC000097218354    0.1000
27     C27     0.5750   -2.6591    2.9011 C.3      1 ZINC000097218354   -0.0500
28     H28    -0.9618   -4.7590    2.9551 H        1 ZINC000097218354    0.1200
29     H29    -0.3682   -5.3559    4.5234 H        1 ZINC000097218354    0.1300
30     H30    -1.1642   -3.7673    4.4193 H        1 ZINC000097218354    0.1300
31     H31     1.4071   -5.8159    3.3654 H        1 ZINC000097218354    0.1400
32     H32     1.5516   -4.7628    1.9368 H        1 ZINC000097218354    0.1300
33     H33     3.1319   -3.9937    4.3452 H        1 ZINC000097218354    0.0900
34     H34     3.6642   -5.4454    3.4633 H        1 ZINC000097218354    0.1300
35     H35     4.6124   -3.1239    2.7133 H        1 ZINC000097218354    0.1000
36     H36     4.0399   -4.2452    1.4608 H        1 ZINC000097218354    0.1100
37     H37     2.2740   -3.0910   -2.0477 H        1 ZINC000097218354    0.1500
38     H38     3.8833   -4.1359   -3.5865 H        1 ZINC000097218354    0.1600
39     H39     8.4459   -3.5950   -3.8112 H        1 ZINC000097218354    0.4300
40     H40     5.7335   -4.2295   -5.9045 H        1 ZINC000097218354    0.1700
41     H41     4.6399   -2.5585   -7.3404 H        1 ZINC000097218354    0.1700
42     H42     6.6375    0.5488   -5.4448 H        1 ZINC000097218354    0.1600
43     H43     7.7930   -1.0187   -3.9423 H        1 ZINC000097218354    0.1400
44     H44     6.8838   -4.0237   -0.5556 H        1 ZINC000097218354    0.1500
45     H45     5.2920   -2.9724    0.9970 H        1 ZINC000097218354    0.1500
46     H46     2.3891   -1.7767    3.6990 H        1 ZINC000097218354    0.1000
47     H47     1.6932   -0.8949    2.3199 H        1 ZINC000097218354    0.1300
48     H48     0.1810   -2.9217    1.9193 H        1 ZINC000097218354    0.1300
49     H49    -0.1471   -2.0293    3.4207 H        1 ZINC000097218354    0.1500
@<TRIPOS>BOND
1     1     2     1
2     1     28    1
3     1     29    1
4     1     30    1
5     2     3     1
6     2     27    1
7     2     4     1
8     4     5     1
9     4     31    1
10    4     32    1
11    5     6     1
12    5     33    1
13    5     34    1
14    6     7     1
15    6     35    1
16    6     36    1
17    7     8     am
18    7     26    1
19    8     9     2
20    8     10    1
21    10    25    ar
22    10    11    ar
23    11    12    ar
24    11    37    1
25    12    13    ar
26    12    38    1
27    13    14    1
28    13    24    ar
29    14    15    2
30    14    16    2
31    14    17    am
32    17    18    1
33    17    39    1
34    18    23    ar
35    18    19    ar
36    19    20    ar
37    19    40    1
38    20    21    ar
39    20    41    1
40    21    22    ar
41    22    23    ar
42    22    42    1
43    23    43    1
44    24    25    ar
45    24    44    1
46    25    45    1
47    26    27    1
48    26    46    1
49    26    47    1
50    27    48    1
51    27    49    1
@<TRIPOS>SUBSTRUCTURE
1   ZINC000097218354 1     RESIDUE    1   A     ZIN   1

@<TRIPOS>MOLECULE
ZINC000097218354
49    51    1     0     0
SMALL
USER_CHARGES
@<TRIPOS>ATOM
1      C1      1.0552    1.5474    2.3913 C.3      1 ZINC000097218354   -0.0500
2      N2      0.5520    0.4187    1.5970 N.4      1 ZINC000097218354   -0.3700
3      H3      0.6818    0.6357    0.6202 H        1 ZINC000097218354    0.4200
4      C4     -0.8799    0.2779    1.8517 C.3      1 ZINC000097218354   -0.0100
5      C5     -1.5500   -0.3044    0.6269 C.3      1 ZINC000097218354   -0.1600
6      C6     -1.6318   -1.8354    0.7667 C.3      1 ZINC000097218354    0.0800
7      N7     -0.3964   -2.3808    1.3645 N.am     1 ZINC000097218354   -0.6200
8      C8     -0.4976   -3.3565    2.2888 C.2      1 ZINC000097218354    0.5600
9      O9      0.5062   -3.8677    2.7454 O.2      1 ZINC000097218354   -0.5000
10     C10    -1.8297   -3.8052    2.7471 C.ar     1 ZINC000097218354   -0.0900
11     C11    -2.8455   -4.0457    1.8205 C.ar     1 ZINC000097218354   -0.1100
12     C12    -4.0861   -4.4647    2.2548 C.ar     1 ZINC000097218354   -0.0200
13     C13    -4.3246   -4.6461    3.6056 C.ar     1 ZINC000097218354   -0.6500
14     S14    -5.9122   -5.1808    4.1518 S.o2     1 ZINC000097218354    2.6900
15     O15    -6.0887   -4.6461    5.4565 O.2      1 ZINC000097218354   -0.9400
16     O16    -6.8110   -4.9289    3.0805 O.2      1 ZINC000097218354   -0.9300
17     N17    -5.8420   -6.8261    4.3263 N.am     1 ZINC000097218354   -1.0500
18     C18    -5.5991   -7.6335    3.2191 C.ar     1 ZINC000097218354    0.1800
19     C19    -6.2621   -7.4113    2.0122 C.ar     1 ZINC000097218354   -0.2100
20     C20    -5.9927   -8.2337    0.9386 C.ar     1 ZINC000097218354    0.1200
21     N21    -5.1212   -9.2195    1.0432 N.ar     1 ZINC000097218354   -0.4900
22     C22    -4.4737   -9.4620    2.1675 C.ar     1 ZINC000097218354    0.1200
23     C23    -4.6822   -8.6823    3.2857 C.ar     1 ZINC000097218354   -0.1800
24     C24    -3.3219   -4.4098    4.5292 C.ar     1 ZINC000097218354   -0.0100
25     C25    -2.0753   -3.9957    4.1078 C.ar     1 ZINC000097218354   -0.0900
26     C26     0.9203   -1.9051    0.9928 C.3      1 ZINC000097218354    0.1000
27     C27     1.3239   -0.7232    1.9063 C.3      1 ZINC000097218354   -0.0400
28     H28     2.1138    1.6975    2.1792 H        1 ZINC000097218354    0.1300
29     H29     0.5013    2.4497    2.1320 H        1 ZINC000097218354    0.1300
30     H30     0.9240    1.3326    3.4518 H        1 ZINC000097218354    0.1200
31     H31    -1.0348   -0.3865    2.7018 H        1 ZINC000097218354    0.1300
32     H32    -1.3085    1.2559    2.0707 H        1 ZINC000097218354    0.1400
33     H33    -2.5553    0.1062    0.5329 H        1 ZINC000097218354    0.1300
34     H34    -0.9694   -0.0510   -0.2601 H        1 ZINC000097218354    0.0900
35     H35    -2.4799   -2.0918    1.4017 H        1 ZINC000097218354    0.1100
36     H36    -1.7776   -2.2773   -0.2189 H        1 ZINC000097218354    0.0900
37     H37    -2.6607   -3.9038    0.7659 H        1 ZINC000097218354    0.1400
38     H38    -4.8729   -4.6511    1.5389 H        1 ZINC000097218354    0.1500
39     H39    -5.9702   -7.2271    5.2002 H        1 ZINC000097218354    0.4300
40     H40    -6.9766   -6.6067    1.9200 H        1 ZINC000097218354    0.1700
41     H41    -6.5016   -8.0692    0.0003 H        1 ZINC000097218354    0.1700
42     H42    -3.7686  -10.2788    2.2111 H        1 ZINC000097218354    0.1600
43     H43    -4.1488   -8.8860    4.2024 H        1 ZINC000097218354    0.1400
44     H44    -3.5145   -4.5537    5.5822 H        1 ZINC000097218354    0.1500
45     H45    -1.2934   -3.8120    4.8298 H        1 ZINC000097218354    0.1400
46     H46     1.6426   -2.7136    1.1048 H        1 ZINC000097218354    0.1300
47     H47     0.9062   -1.5745   -0.0457 H        1 ZINC000097218354    0.1000
48     H48     2.3787   -0.4937    1.7550 H        1 ZINC000097218354    0.1500
49     H49     1.1631   -1.0007    2.9481 H        1 ZINC000097218354    0.1300
@<TRIPOS>BOND
1     1     2     1
2     1     28    1
3     1     29    1
4     1     30    1
5     2     3     1
6     2     27    1
7     2     4     1
8     4     5     1
9     4     31    1
10    4     32    1
11    5     6     1
12    5     33    1
13    5     34    1
14    6     7     1
15    6     35    1
16    6     36    1
17    7     8     am
18    7     26    1
19    8     9     2
20    8     10    1
21    10    25    ar
22    10    11    ar
23    11    12    ar
24    11    37    1
25    12    13    ar
26    12    38    1
27    13    14    1
28    13    24    ar
29    14    15    2
30    14    16    2
31    14    17    am
32    17    18    1
33    17    39    1
34    18    23    ar
35    18    19    ar
36    19    20    ar
37    19    40    1
38    20    21    ar
39    20    41    1
40    21    22    ar
41    22    23    ar
42    22    42    1
43    23    43    1
44    24    25    ar
45    24    44    1
46    25    45    1
47    26    27    1
48    26    46    1
49    26    47    1
50    27    48    1
51    27    49    1
@<TRIPOS>SUBSTRUCTURE
1   ZINC000097218354 1     RESIDUE    1   A     ZIN   1

@<TRIPOS>MOLECULE
ZINC000097218354
50    52    1     0     0
SMALL
USER_CHARGES
@<TRIPOS>ATOM
1      C1     -0.5097   -4.4703    3.9040 C.3      1 ZINC000097218354   -0.0600
2      N2      0.7909   -3.8350    3.6535 N.4      1 ZINC000097218354   -0.3700
3      H3      1.1931   -3.5753    4.5417 H        1 ZINC000097218354    0.4200
4      C4      1.6686   -4.8159    3.0192 C.3      1 ZINC000097218354   -0.0100
5      C5      3.1042   -4.5133    3.3875 C.3      1 ZINC000097218354   -0.1600
6      C6      3.7348   -3.6225    2.3017 C.3      1 ZINC000097218354    0.0800
7      N7      2.7763   -2.6038    1.8278 N.am     1 ZINC000097218354   -0.6200
8      C8      2.7127   -2.3354    0.5085 C.2      1 ZINC000097218354    0.5500
9      O9      1.8641   -1.5764    0.0829 O.2      1 ZINC000097218354   -0.5000
10     C10     3.6751   -2.9644   -0.4210 C.ar     1 ZINC000097218354   -0.0800
11     C11     3.2826   -3.2940   -1.7192 C.ar     1 ZINC000097218354   -0.0800
12     C12     4.1857   -3.8803   -2.5817 C.ar     1 ZINC000097218354   -0.0200
13     C13     5.4779   -4.1419   -2.1622 C.ar     1 ZINC000097218354   -0.6600
14     S14     6.6249   -4.8914   -3.2700 S.o2     1 ZINC000097218354    2.6800
15     O15     7.5408   -5.6218   -2.4657 O.2      1 ZINC000097218354   -0.9100
16     O16     5.8535   -5.4860   -4.3047 O.2      1 ZINC000097218354   -0.9200
17     N17     7.4931   -3.6710   -3.9765 N.am     1 ZINC000097218354   -1.0500
18     C18     6.8557   -2.7543   -4.8073 C.ar     1 ZINC000097218354    0.2800
19     C19     5.9518   -3.1790   -5.7809 C.ar     1 ZINC000097218354   -0.1800
20     C20     5.3410   -2.2388   -6.5837 C.ar     1 ZINC000097218354    0.1700
21     N21     5.6026   -0.9531   -6.4393 N.ar     1 ZINC000097218354   -0.4600
22     H22     5.1578   -0.3142   -7.0180 H        1 ZINC000097218354    0.4600
23     C23     6.4515   -0.5116   -5.5301 C.ar     1 ZINC000097218354    0.1600
24     C24     7.0999   -1.3867   -4.6843 C.ar     1 ZINC000097218354   -0.1500
25     C25     5.8736   -3.8172   -0.8768 C.ar     1 ZINC000097218354   -0.0200
26     C26     4.9819   -3.2257   -0.0060 C.ar     1 ZINC000097218354   -0.1100
27     C27     1.9017   -1.8831    2.7299 C.3      1 ZINC000097218354    0.1000
28     C28     0.5750   -2.6591    2.9011 C.3      1 ZINC000097218354   -0.0400
29     H29    -0.9618   -4.7590    2.9551 H        1 ZINC000097218354    0.1200
30     H30    -0.3682   -5.3559    4.5234 H        1 ZINC000097218354    0.1300
31     H31    -1.1642   -3.7673    4.4193 H        1 ZINC000097218354    0.1300
32     H32     1.4071   -5.8159    3.3654 H        1 ZINC000097218354    0.1400
33     H33     1.5516   -4.7628    1.9368 H        1 ZINC000097218354    0.1300
34     H34     3.1319   -3.9937    4.3452 H        1 ZINC000097218354    0.1000
35     H35     3.6642   -5.4454    3.4633 H        1 ZINC000097218354    0.1300
36     H36     4.6124   -3.1239    2.7133 H        1 ZINC000097218354    0.1000
37     H37     4.0399   -4.2452    1.4608 H        1 ZINC000097218354    0.1100
38     H38     2.2740   -3.0910   -2.0477 H        1 ZINC000097218354    0.1500
39     H39     3.8833   -4.1359   -3.5865 H        1 ZINC000097218354    0.1500
40     H40     8.4459   -3.5950   -3.8112 H        1 ZINC000097218354    0.4500
41     H41     5.7335   -4.2295   -5.9045 H        1 ZINC000097218354    0.2100
42     H42     4.6399   -2.5585   -7.3404 H        1 ZINC000097218354    0.2200
43     H43     6.6375    0.5488   -5.4448 H        1 ZINC000097218354    0.2200
44     H44     7.7930   -1.0187   -3.9423 H        1 ZINC000097218354    0.1900
45     H45     6.8838   -4.0237   -0.5556 H        1 ZINC000097218354    0.1600
46     H46     5.2920   -2.9724    0.9970 H        1 ZINC000097218354    0.1500
47     H47     2.3891   -1.7767    3.6990 H        1 ZINC000097218354    0.1100
48     H48     1.6932   -0.8949    2.3199 H        1 ZINC000097218354    0.1300
49     H49     0.1810   -2.9217    1.9193 H        1 ZINC000097218354    0.1300
50     H50    -0.1471   -2.0293    3.4207 H        1 ZINC000097218354    0.1500
@<TRIPOS>BOND
1     1     2     1
2     1     29    1
3     1     30    1
4     1     31    1
5     2     3     1
6     2     28    1
7     2     4     1
8     4     5     1
9     4     32    1
10    4     33    1
11    5     6     1
12    5     34    1
13    5     35    1
14    6     7     1
15    6     36    1
16    6     37    1
17    7     8     am
18    7     27    1
19    8     9     2
20    8     10    1
21    10    26    ar
22    10    11    ar
23    11    12    ar
24    11    38    1
25    12    13    ar
26    12    39    1
27    13    14    1
28    13    25    ar
29    14    15    2
30    14    16    2
31    14    17    am
32    17    18    1
33    17    40    1
34    18    24    ar
35    18    19    ar
36    19    20    ar
37    19    41    1
38    20    21    ar
39    20    42    1
40    21    22    1
41    21    23    ar
42    23    24    ar
43    23    43    1
44    24    44    1
45    25    26    ar
46    25    45    1
47    26    46    1
48    27    28    1
49    27    47    1
50    27    48    1
51    28    49    1
52    28    50    1
@<TRIPOS>SUBSTRUCTURE
1   ZINC000097218354 1     RESIDUE    1   A     ZIN   1

@<TRIPOS>MOLECULE
ZINC000097218354
50    52    1     0     0
SMALL
USER_CHARGES
@<TRIPOS>ATOM
1      C1      1.0552    1.5474    2.3913 C.3      1 ZINC000097218354   -0.0600
2      N2      0.5520    0.4187    1.5970 N.4      1 ZINC000097218354   -0.3700
3      H3      0.6818    0.6357    0.6202 H        1 ZINC000097218354    0.4200
4      C4     -0.8799    0.2779    1.8517 C.3      1 ZINC000097218354   -0.0100
5      C5     -1.5500   -0.3044    0.6269 C.3      1 ZINC000097218354   -0.1600
6      C6     -1.6318   -1.8354    0.7667 C.3      1 ZINC000097218354    0.0800
7      N7     -0.3964   -2.3808    1.3645 N.am     1 ZINC000097218354   -0.6200
8      C8     -0.4976   -3.3565    2.2888 C.2      1 ZINC000097218354    0.5500
9      O9      0.5062   -3.8677    2.7454 O.2      1 ZINC000097218354   -0.4900
10     C10    -1.8297   -3.8052    2.7471 C.ar     1 ZINC000097218354   -0.0700
11     C11    -2.8455   -4.0457    1.8205 C.ar     1 ZINC000097218354   -0.1100
12     C12    -4.0861   -4.4647    2.2548 C.ar     1 ZINC000097218354   -0.0300
13     C13    -4.3246   -4.6461    3.6056 C.ar     1 ZINC000097218354   -0.6700
14     S14    -5.9122   -5.1808    4.1518 S.o2     1 ZINC000097218354    2.6800
15     O15    -6.0887   -4.6461    5.4565 O.2      1 ZINC000097218354   -0.9000
16     O16    -6.8110   -4.9289    3.0805 O.2      1 ZINC000097218354   -0.9200
17     N17    -5.8420   -6.8261    4.3263 N.am     1 ZINC000097218354   -1.0500
18     C18    -5.5991   -7.6335    3.2191 C.ar     1 ZINC000097218354    0.2800
19     C19    -6.2621   -7.4113    2.0122 C.ar     1 ZINC000097218354   -0.1800
20     C20    -5.9927   -8.2337    0.9386 C.ar     1 ZINC000097218354    0.1600
21     N21    -5.1212   -9.2195    1.0432 N.ar     1 ZINC000097218354   -0.4600
22     H22    -4.9515   -9.7818    0.2713 H        1 ZINC000097218354    0.4600
23     C23    -4.4737   -9.4620    2.1675 C.ar     1 ZINC000097218354    0.1600
24     C24    -4.6822   -8.6823    3.2857 C.ar     1 ZINC000097218354   -0.1500
25     C25    -3.3219   -4.4098    4.5292 C.ar     1 ZINC000097218354   -0.0100
26     C26    -2.0753   -3.9957    4.1078 C.ar     1 ZINC000097218354   -0.0800
27     C27     0.9203   -1.9051    0.9928 C.3      1 ZINC000097218354    0.0900
28     C28     1.3239   -0.7232    1.9063 C.3      1 ZINC000097218354   -0.0400
29     H29     2.1138    1.6975    2.1792 H        1 ZINC000097218354    0.1300
30     H30     0.5013    2.4497    2.1320 H        1 ZINC000097218354    0.1300
31     H31     0.9240    1.3326    3.4518 H        1 ZINC000097218354    0.1200
32     H32    -1.0348   -0.3865    2.7018 H        1 ZINC000097218354    0.1300
33     H33    -1.3085    1.2559    2.0707 H        1 ZINC000097218354    0.1400
34     H34    -2.5553    0.1062    0.5329 H        1 ZINC000097218354    0.1300
35     H35    -0.9694   -0.0510   -0.2601 H        1 ZINC000097218354    0.1000
36     H36    -2.4799   -2.0918    1.4017 H        1 ZINC000097218354    0.1100
37     H37    -1.7776   -2.2773   -0.2189 H        1 ZINC000097218354    0.0900
38     H38    -2.6607   -3.9038    0.7659 H        1 ZINC000097218354    0.1500
39     H39    -4.8729   -4.6511    1.5389 H        1 ZINC000097218354    0.1500
40     H40    -5.9702   -7.2271    5.2002 H        1 ZINC000097218354    0.4500
41     H41    -6.9766   -6.6067    1.9200 H        1 ZINC000097218354    0.2100
42     H42    -6.5016   -8.0692    0.0003 H        1 ZINC000097218354    0.2200
43     H43    -3.7686  -10.2788    2.2111 H        1 ZINC000097218354    0.2200
44     H44    -4.1488   -8.8860    4.2024 H        1 ZINC000097218354    0.1900
45     H45    -3.5145   -4.5537    5.5822 H        1 ZINC000097218354    0.1600
46     H46    -1.2934   -3.8120    4.8298 H        1 ZINC000097218354    0.1500
47     H47     1.6426   -2.7136    1.1048 H        1 ZINC000097218354    0.1300
48     H48     0.9062   -1.5745   -0.0457 H        1 ZINC000097218354    0.1100
49     H49     2.3787   -0.4937    1.7550 H        1 ZINC000097218354    0.1500
50     H50     1.1631   -1.0007    2.9481 H        1 ZINC000097218354    0.1300
@<TRIPOS>BOND
1     1     2     1
2     1     29    1
3     1     30    1
4     1     31    1
5     2     3     1
6     2     28    1
7     2     4     1
8     4     5     1
9     4     32    1
10    4     33    1
11    5     6     1
12    5     34    1
13    5     35    1
14    6     7     1
15    6     36    1
16    6     37    1
17    7     8     am
18    7     27    1
19    8     9     2
20    8     10    1
21    10    26    ar
22    10    11    ar
23    11    12    ar
24    11    38    1
25    12    13    ar
26    12    39    1
27    13    14    1
28    13    25    ar
29    14    15    2
30    14    16    2
31    14    17    am
32    17    18    1
33    17    40    1
34    18    24    ar
35    18    19    ar
36    19    20    ar
37    19    41    1
38    20    21    ar
39    20    42    1
40    21    22    1
41    21    23    ar
42    23    24    ar
43    23    43    1
44    24    44    1
45    25    26    ar
46    25    45    1
47    26    46    1
48    27    28    1
49    27    47    1
50    27    48    1
51    28    49    1
52    28    50    1
@<TRIPOS>SUBSTRUCTURE
1   ZINC000097218354 1     RESIDUE    1   A     ZIN   1
@<TRIPOS>MOLECULE
ZINC000013269712
36    37    1     0     0
SMALL
USER_CHARGES
@<TRIPOS>ATOM
1      C1     -0.0184    1.5028    0.0103 C.3      1 ZINC000013269712   -0.1800
2      C2      0.0021   -0.0041    0.0020 C.2      1 ZINC000013269712    0.5100
3      O3      1.0605   -0.5961   -0.0113 O.2      1 ZINC000013269712   -0.5200
4      N4     -1.1558   -0.6938    0.0094 N.am     1 ZINC000013269712   -0.6100
5      C5     -2.4489    0.0304    0.0194 C.3      1 ZINC000013269712    0.1200
6      C6     -3.0503    0.0221   -1.3235 C.3      1 ZINC000013269712   -0.1900
7      C7     -3.2773   -1.4086   -1.8399 C.3      1 ZINC000013269712    0.1200
8      N8     -2.0176   -1.9178   -2.3005 N.am     1 ZINC000013269712   -0.9900
9      S9     -1.5465   -1.6027   -3.8565 S.o2     1 ZINC000013269712    2.7200
10     O10    -0.6205   -2.6212   -4.2094 O.2      1 ZINC000013269712   -0.9500
11     O11    -2.7352   -1.3445   -4.5911 O.2      1 ZINC000013269712   -0.9600
12     C12    -0.6393   -0.0925   -3.8311 C.2      1 ZINC000013269712   -0.8200
13     C13     0.6731   -0.0032   -3.6588 C.2      1 ZINC000013269712    0.0700
14     C14     1.1567    1.3589   -3.6812 C.2      1 ZINC000013269712   -0.1700
15     C15     2.5690    1.7198   -3.5134 C.2      1 ZINC000013269712    0.5400
16     O16     3.4082    0.8451   -3.3434 O.co2    1 ZINC000013269712   -0.6800
17     O17     2.9080    2.8956   -3.5434 O.co2    1 ZINC000013269712   -0.6900
18     C18     0.1644    2.2730   -3.8750 C.2      1 ZINC000013269712   -0.1800
19     S19    -1.3462    1.5004   -4.0377 S.3      1 ZINC000013269712    0.1900
20     C20    -1.1202   -2.7199   -1.4246 C.3      1 ZINC000013269712    0.1000
21     C21    -1.1356   -2.1298    0.0015 C.3      1 ZINC000013269712    0.1100
22     H22     1.0042    1.8801    0.0026 H        1 ZINC000013269712    0.1000
23     H23    -0.5455    1.8639   -0.8728 H        1 ZINC000013269712    0.0900
24     H24    -0.5286    1.8543    0.9071 H        1 ZINC000013269712    0.0800
25     H25    -3.1278   -0.4533    0.7217 H        1 ZINC000013269712    0.0800
26     H26    -2.2829    1.0608    0.3339 H        1 ZINC000013269712    0.0900
27     H27    -4.0074    0.5424   -1.2871 H        1 ZINC000013269712    0.0900
28     H28    -2.3884    0.5473   -2.0121 H        1 ZINC000013269712    0.0800
29     H29    -3.6556   -2.0361   -1.0329 H        1 ZINC000013269712    0.0900
30     H30    -3.9921   -1.3944   -2.6626 H        1 ZINC000013269712    0.1000
31     H31     1.3145   -0.8603   -3.5160 H        1 ZINC000013269712    0.1600
32     H32     0.3154    3.3413   -3.9230 H        1 ZINC000013269712    0.1700
33     H33    -1.4683   -3.7524   -1.3956 H        1 ZINC000013269712    0.0800
34     H34    -0.1047   -2.6894   -1.8194 H        1 ZINC000013269712    0.0900
35     H35    -0.2472   -2.4701    0.5335 H        1 ZINC000013269712    0.0900
36     H36    -2.0192   -2.4953    0.5248 H        1 ZINC000013269712    0.0800
@<TRIPOS>BOND
1     1     2     1
2     1     22    1
3     1     23    1
4     1     24    1
5     2     3     2
6     2     4     am
7     4     21    1
8     4     5     1
9     5     6     1
10    5     25    1
11    5     26    1
12    6     7     1
13    6     27    1
14    6     28    1
15    7     8     1
16    7     29    1
17    7     30    1
18    8     9     am
19    8     20    1
20    9     10    2
21    9     11    2
22    9     12    1
23    12    19    1
24    12    13    2
25    13    14    1
26    13    31    1
27    14    15    1
28    14    18    2
29    15    16    ar
30    15    17    ar
31    18    19    1
32    18    32    1
33    20    21    1
34    20    33    1
35    20    34    1
36    21    35    1
37    21    36    1
@<TRIPOS>SUBSTRUCTURE
1   ZINC000013269712 1     RESIDUE    1   A     ZIN   1
@<TRIPOS>MOLECULE
ZINC000019498514
  46   48    0    0    0
SMALL
USER_CHARGES
NO_NAME
@<TRIPOS>ATOM
    1 C1       -0.0187     1.5258     0.0104 C.3    1 <0>      -0.1400
    2 C2        0.0021    -0.0041     0.0020 C.3    1 <0>      -0.1400
    3 C3       -1.4117    -0.5257     0.0127 C.2    1 <0>       0.5300
    4 O4       -2.3441     0.2498     0.0258 O.2    1 <0>      -0.5300
    5 N5       -1.6400    -1.8540     0.0078 N.am   1 <0>      -0.6300
    6 C6       -0.6077    -2.9008    -0.0013 C.3    1 <0>       0.1000
    7 C7       -1.3352    -4.2615    -0.0306 C.3    1 <0>      -0.1200
    8 C8       -2.7289    -3.8980    -0.6075 C.3    1 <0>      -0.0600
    9 H9       -2.6994    -3.8442    -1.6957 H      1 <0>       0.1200
   10 C10      -3.7767    -4.8780    -0.1462 C.2    1 <0>       0.4100
   11 N11      -4.4802    -4.6077     0.9176 N.2    1 <0>      -0.5300
   12 C12      -5.4283    -5.4409     1.3730 C.2    1 <0>       0.1700
   13 C13      -5.6799    -6.5945     0.7091 C.2    1 <0>      -0.2300
   14 C14      -6.7395    -7.5760     1.1271 C.3    1 <0>      -0.0700
   15 C15      -7.1188    -7.3748     2.5941 C.3    1 <0>       0.1200
   16 N16      -7.3258    -5.9333     2.8125 N.am   1 <0>      -1.0100
   17 S17      -8.8056    -5.3320     3.2499 S.o2   1 <0>       2.6100
   18 C18      -8.7890    -5.3640     5.0635 C.3    1 <0>      -0.6700
   19 O19      -8.7942    -3.9929     2.7746 O.2    1 <0>      -0.9500
   20 O20      -9.7333    -6.2815     2.7429 O.2    1 <0>      -0.9500
   21 C21      -6.1681    -5.0513     2.6275 C.3    1 <0>       0.1700
   22 C22      -4.9096    -6.8938    -0.4404 C.2    1 <0>       0.5300
   23 O23      -5.0946    -7.9294    -1.0578 O.2    1 <0>      -0.5300
   24 N24      -3.9718    -6.0138    -0.8447 N.am   1 <0>      -0.6300
   25 C25      -2.9661    -2.4979     0.0170 C.3    1 <0>       0.1200
   26 H26       1.0039     1.9031     0.0027 H      1 <0>       0.0600
   27 H27      -0.5459     1.8868    -0.8726 H      1 <0>       0.0600
   28 H28      -0.5289     1.8773     0.9072 H      1 <0>       0.0600
   29 H29       0.5123    -0.3556    -0.8948 H      1 <0>       0.0900
   30 H30       0.5293    -0.3651     0.8851 H      1 <0>       0.0900
   31 H31       0.0186    -2.7961    -0.8872 H      1 <0>       0.0800
   32 H32       0.0035    -2.8265     0.8982 H      1 <0>       0.0800
   33 H33      -0.8172    -4.9617    -0.6859 H      1 <0>       0.0900
   34 H34      -1.4289    -4.6704     0.9755 H      1 <0>       0.0900
   35 H35      -7.6239    -7.4352     0.5056 H      1 <0>       0.0900
   36 H36      -6.3635    -8.5898     0.9898 H      1 <0>       0.0900
   37 H37      -8.0379    -7.9173     2.8154 H      1 <0>       0.1000
   38 H38      -6.3141    -7.7334     3.2358 H      1 <0>       0.0800
   39 H39      -7.9725    -4.7420     5.4304 H      1 <0>       0.1300
   40 H40      -9.7364    -4.9804     5.4423 H      1 <0>       0.1300
   41 H41      -8.6482    -6.3886     5.4076 H      1 <0>       0.1300
   42 H42      -5.5015    -5.1431     3.4850 H      1 <0>       0.1000
   43 H43      -6.5083    -4.0193     2.5422 H      1 <0>       0.1200
   44 H44      -3.4351    -6.2005    -1.6308 H      1 <0>       0.4200
   45 H45      -3.3392    -2.5955     1.0365 H      1 <0>       0.1000
   46 H46      -3.6665    -1.9251    -0.5910 H      1 <0>       0.0900
@<TRIPOS>BOND
   1    1    2 1
   2    1   26 1
   3    1   27 1
   4    1   28 1
   5    2    3 1
   6    2   29 1
   7    2   30 1
   8    3    4 2
   9    3    5 am
  10    5   25 1
  11    5    6 1
  12    6    7 1
  13    6   31 1
  14    6   32 1
  15    7    8 1
  16    7   33 1
  17    7   34 1
  18    8    9 1
  19    8   10 1
  20    8   25 1
  21   10   24 1
  22   10   11 2
  23   11   12 1
  24   12   21 1
  25   12   13 2
  26   13   14 1
  27   13   22 1
  28   14   15 1
  29   14   35 1
  30   14   36 1
  31   15   16 1
  32   15   37 1
  33   15   38 1
  34   16   17 am
  35   16   21 1
  36   17   18 1
  37   17   19 2
  38   17   20 2
  39   18   39 1
  40   18   40 1
  41   18   41 1
  42   21   42 1
  43   21   43 1
  44   22   23 2
  45   22   24 am
  46   24   44 1
  47   25   45 1
  48   25   46 1

@<TRIPOS>MOLECULE
ZINC000019498514
  45   47    0    0    0
SMALL
USER_CHARGES
NO_NAME
@<TRIPOS>ATOM
    1 C1       -0.0187     1.5258     0.0104 C.3    1 <0>      -0.1400
    2 C2        0.0021    -0.0041     0.0020 C.3    1 <0>      -0.1400
    3 C3        0.7074    -0.4901    -1.2379 C.2    1 <0>       0.5200
    4 O4        1.1500     0.3085    -2.0362 O.2    1 <0>      -0.5500
    5 N5        0.8465    -1.8122    -1.4596 N.am   1 <0>      -0.6200
    6 C6        0.3548    -2.8845    -0.5822 C.3    1 <0>       0.1000
    7 C7        0.7649    -4.2264    -1.2246 C.3    1 <0>      -0.1200
    8 C8        1.9553    -3.8261    -2.1356 C.3    1 <0>      -0.0200
    9 H9        2.8822    -3.7693    -1.5649 H      1 <0>       0.0900
   10 C10       2.0947    -4.7811    -3.2931 C.2    1 <0>       0.3600
   11 N11       1.0560    -5.4633    -3.6873 N.2    1 <0>      -0.6200
   12 C12       1.1201    -6.3254    -4.7134 C.2    1 <0>       0.1600
   13 C13       2.2900    -6.4913    -5.3756 C.2    1 <0>      -0.3200
   14 C14       2.4515    -7.4126    -6.5528 C.3    1 <0>      -0.0500
   15 C15       1.3380    -8.4593    -6.5810 C.3    1 <0>       0.1300
   16 N16       0.0589    -7.7626    -6.3638 N.am   1 <0>      -1.0000
   17 S17      -1.1194    -7.7425    -7.5273 S.o2   1 <0>       2.6100
   18 C18      -2.1288    -9.2078    -7.1746 C.3    1 <0>      -0.6800
   19 O19      -1.8538    -6.5554    -7.2617 O.2    1 <0>      -0.9500
   20 O20      -0.4100    -7.9075    -8.7474 O.2    1 <0>      -0.9500
   21 C21      -0.1295    -7.0875    -5.0750 C.3    1 <0>       0.1800
   22 C22       3.4210    -5.7586    -4.9419 C.2    1 <0>       0.4900
   23 O23       4.4967    -5.8906    -5.5017 O.2    1 <0>      -0.6200
   24 N24       3.2892    -4.9089    -3.9037 N.pl3  1 <0>      -0.6600
   25 C25       1.5113    -2.4226    -2.6253 C.3    1 <0>       0.1200
   26 H26       1.0039     1.9031     0.0027 H      1 <0>       0.0600
   27 H27      -0.5459     1.8868    -0.8726 H      1 <0>       0.0600
   28 H28      -0.5289     1.8773     0.9072 H      1 <0>       0.0600
   29 H29       0.5293    -0.3651     0.8851 H      1 <0>       0.0900
   30 H30      -1.0205    -0.3814     0.0098 H      1 <0>       0.0900
   31 H31       0.8074    -2.7925     0.4051 H      1 <0>       0.0700
   32 H32      -0.7308    -2.8287    -0.5012 H      1 <0>       0.0700
   33 H33       1.0845    -4.9371    -0.4625 H      1 <0>       0.0800
   34 H34      -0.0532    -4.6364    -1.8169 H      1 <0>       0.1000
   35 H35       2.4179    -6.8285    -7.4725 H      1 <0>       0.0600
   36 H36       3.4156    -7.9166    -6.4841 H      1 <0>       0.0700
   37 H37       1.3260    -8.9595    -7.5494 H      1 <0>       0.0900
   38 H38       1.4989    -9.1907    -5.7890 H      1 <0>       0.0700
   39 H39      -2.5465    -9.1283    -6.1709 H      1 <0>       0.1300
   40 H40      -2.9387    -9.2745    -7.9010 H      1 <0>       0.1200
   41 H41      -1.5077   -10.1012    -7.2399 H      1 <0>       0.1300
   42 H42      -0.3378    -7.8293    -4.3040 H      1 <0>       0.0700
   43 H43      -0.9683    -6.3952    -5.1474 H      1 <0>       0.1000
   44 H44       0.8163    -2.5144    -3.4600 H      1 <0>       0.0700
   45 H45       2.3788    -1.8303    -2.9162 H      1 <0>       0.0800
@<TRIPOS>BOND
   1    1    2 1
   2    1   26 1
   3    1   27 1
   4    1   28 1
   5    2    3 1
   6    2   29 1
   7    2   30 1
   8    3    4 2
   9    3    5 am
  10    5   25 1
  11    5    6 1
  12    6    7 1
  13    6   31 1
  14    6   32 1
  15    7    8 1
  16    7   33 1
  17    7   34 1
  18    8    9 1
  19    8   10 1
  20    8   25 1
  21   10   24 1
  22   10   11 2
  23   11   12 1
  24   12   21 1
  25   12   13 2
  26   13   14 1
  27   13   22 1
  28   14   15 1
  29   14   35 1
  30   14   36 1
  31   15   16 1
  32   15   37 1
  33   15   38 1
  34   16   17 am
  35   16   21 1
  36   17   18 1
  37   17   19 2
  38   17   20 2
  39   18   39 1
  40   18   40 1
  41   18   41 1
  42   21   42 1
  43   21   43 1
  44   22   23 2
  45   22   24 1
  46   25   44 1
  47   25   45 1
@<TRIPOS>MOLECULE
ZINC000037433301
42    43    1     0     0
SMALL
USER_CHARGES
@<TRIPOS>ATOM
1      C1      0.1786    2.0998   -0.1557 C.3      1 ZINC000037433301   -0.6600
2      S2      0.0254    0.2936   -0.0885 S.o2     1 ZINC000037433301    2.6100
3      O3      0.6288   -0.2144    1.0935 O.2      1 ZINC000037433301   -0.9400
4      O4     -1.2804   -0.1109   -0.4764 O.2      1 ZINC000037433301   -0.9700
5      N5      1.0013   -0.2497   -1.3111 N.am     1 ZINC000037433301   -0.9900
6      C6      0.4489   -0.5211   -2.6453 C.3      1 ZINC000037433301    0.1200
7      C7      1.2636    0.2565   -3.6838 C.3      1 ZINC000037433301   -0.1400
8      C8      2.7450   -0.0970   -3.5329 C.3      1 ZINC000037433301   -0.1100
9      C9      3.2283    0.3075   -2.1383 C.3      1 ZINC000037433301   -0.1300
10     C10     2.4370   -0.4637   -1.0840 C.3      1 ZINC000037433301    0.1300
11     H11     2.6594   -1.5276   -1.1660 H        1 ZINC000037433301    0.1000
12     C12     2.8145    0.0268    0.2900 C.2      1 ZINC000037433301    0.5300
13     O13     2.4549    1.1236    0.6624 O.2      1 ZINC000037433301   -0.5600
14     N14     3.5519   -0.7533    1.1050 N.am     1 ZINC000037433301   -0.5800
15     C15     4.1030   -2.0277    0.6245 C.3      1 ZINC000037433301    0.1000
16     C16     5.6125   -2.0417    0.8854 C.3      1 ZINC000037433301   -0.1100
17     C17     5.8726   -1.7635    2.3676 C.3      1 ZINC000037433301   -0.1600
18     C18     7.3550   -1.8102    2.6346 C.2      1 ZINC000037433301    0.5000
19     O19     7.8365   -1.1262    3.5216 O.co2    1 ZINC000037433301   -0.7000
20     O20     8.0728   -2.5321    1.9637 O.co2    1 ZINC000037433301   -0.7000
21     C21     5.3325   -0.3784    2.7308 C.3      1 ZINC000037433301   -0.1100
22     C22     3.8250   -0.3426    2.4890 C.3      1 ZINC000037433301    0.1200
23     H23     1.2331    2.3755   -0.1505 H        1 ZINC000037433301    0.1600
24     H24    -0.2893    2.4704   -1.0678 H        1 ZINC000037433301    0.1100
25     H25    -0.3161    2.5389    0.7107 H        1 ZINC000037433301    0.1200
26     H26     0.5116   -1.5886   -2.8565 H        1 ZINC000037433301    0.0700
27     H27    -0.5919   -0.1997   -2.6822 H        1 ZINC000037433301    0.0900
28     H28     0.9261   -0.0105   -4.6852 H        1 ZINC000037433301    0.0800
29     H29     1.1271    1.3264   -3.5264 H        1 ZINC000037433301    0.0700
30     H30     2.8775   -1.1707   -3.6659 H        1 ZINC000037433301    0.0700
31     H31     3.3242    0.4362   -4.2868 H        1 ZINC000037433301    0.0700
32     H32     4.2890    0.0769   -2.0398 H        1 ZINC000037433301    0.0800
33     H33     3.0732    1.3769   -1.9955 H        1 ZINC000037433301    0.0800
34     H34     3.6323   -2.8536    1.1578 H        1 ZINC000037433301    0.0700
35     H35     3.9160   -2.1266   -0.4448 H        1 ZINC000037433301    0.0800
36     H36     6.0181   -3.0185    0.6219 H        1 ZINC000037433301    0.0800
37     H37     6.0933   -1.2726    0.2810 H        1 ZINC000037433301    0.0600
38     H38     5.3707   -2.5188    2.9724 H        1 ZINC000037433301    0.0600
39     H39     5.5389   -0.1713    3.7809 H        1 ZINC000037433301    0.0800
40     H40     5.8160    0.3751    2.1090 H        1 ZINC000037433301    0.0600
41     H41     3.4527    0.6689    2.6516 H        1 ZINC000037433301    0.0900
42     H42     3.3287   -1.0311    3.1729 H        1 ZINC000037433301    0.0700
@<TRIPOS>BOND
1     1     2     1
2     1     23    1
3     1     24    1
4     1     25    1
5     2     3     2
6     2     4     2
7     2     5     am
8     5     10    1
9     5     6     1
10    6     7     1
11    6     26    1
12    6     27    1
13    7     8     1
14    7     28    1
15    7     29    1
16    8     9     1
17    8     30    1
18    8     31    1
19    9     10    1
20    9     32    1
21    9     33    1
22    10    11    1
23    10    12    1
24    12    13    2
25    12    14    am
26    14    22    1
27    14    15    1
28    15    16    1
29    15    34    1
30    15    35    1
31    16    17    1
32    16    36    1
33    16    37    1
34    17    18    1
35    17    21    1
36    17    38    1
37    18    19    ar
38    18    20    ar
39    21    22    1
40    21    39    1
41    21    40    1
42    22    41    1
43    22    42    1
@<TRIPOS>SUBSTRUCTURE
1   ZINC000037433301 1     RESIDUE    1   A     ZIN   1
@<TRIPOS>MOLECULE
ZINC000048303895
  46   47    0    0    0
SMALL
USER_CHARGES
NO_NAME
@<TRIPOS>ATOM
    1 C1       -0.4891     1.8447     0.2969 C.3    1 <0>      -0.1800
    2 C2       -0.3305     0.3460     0.2919 C.2    1 <0>       0.5100
    3 O3        0.7770    -0.1466     0.3324 O.2    1 <0>      -0.5400
    4 N4       -1.4193    -0.4467     0.2424 N.am   1 <0>      -0.6200
    5 C5       -2.7672     0.1353     0.1868 C.3    1 <0>       0.1100
    6 C6       -3.5101    -0.4552    -1.0158 C.3    1 <0>      -0.1400
    7 C7       -3.4884    -1.9827    -0.9238 C.3    1 <0>       0.1600
    8 N8       -4.2265    -2.5502    -2.0549 N.am   1 <0>      -1.1200
    9 S9       -5.1275    -3.9244    -1.8498 S.o2   1 <0>       2.7800
   10 O10      -5.7336    -4.1980    -3.1056 O.2    1 <0>      -0.9700
   11 O11      -4.2939    -4.8532    -1.1704 O.2    1 <0>      -0.9700
   12 N12      -6.3592    -3.5519    -0.8074 N.am   1 <0>      -1.0100
   13 C13      -7.6798    -3.1422    -1.3108 C.3    1 <0>       0.0900
   14 C14      -8.7480    -3.9934    -0.6147 C.3    1 <0>       0.0800
   15 H15      -9.7379    -3.6144    -0.8686 H      1 <0>       0.1200
   16 C16      -8.6236    -5.4470    -1.0756 C.3    1 <0>      -0.1900
   17 O17      -8.5580    -3.9222     0.8004 O.3    1 <0>      -0.3700
   18 C18      -7.3075    -4.4492     1.2503 C.3    1 <0>       0.0700
   19 H19      -7.2130    -5.4866     0.9294 H      1 <0>       0.0700
   20 C20      -7.2428    -4.3787     2.7773 C.3    1 <0>      -0.1500
   21 C21      -6.1672    -3.6268     0.6496 C.3    1 <0>       0.0900
   22 C22      -2.0405    -2.4771    -0.9602 C.3    1 <0>      -0.1500
   23 C23      -1.2807    -1.9094     0.2368 C.3    1 <0>       0.1100
   24 H24       0.4937     2.3140     0.3397 H      1 <0>       0.0900
   25 H25      -1.0024     2.1587    -0.6120 H      1 <0>       0.0900
   26 H26      -1.0735     2.1453     1.1665 H      1 <0>       0.0900
   27 H27      -3.3067    -0.1041     1.1032 H      1 <0>       0.0800
   28 H28      -2.6937     1.2172     0.0756 H      1 <0>       0.0900
   29 H29      -4.5424    -0.1052    -1.0133 H      1 <0>       0.0900
   30 H30      -3.0205    -0.1392    -1.9369 H      1 <0>       0.0800
   31 H31      -3.9559    -2.2970     0.0093 H      1 <0>       0.0800
   32 H32      -4.1874    -2.1211    -2.9239 H      1 <0>       0.4200
   33 H33      -7.8471    -2.0885    -1.0876 H      1 <0>       0.0800
   34 H34      -7.7278    -3.3019    -2.3880 H      1 <0>       0.1000
   35 H35      -7.6005    -5.7904    -0.9224 H      1 <0>       0.0600
   36 H36      -9.3065    -6.0707    -0.4989 H      1 <0>       0.0700
   37 H37      -8.8751    -5.5153    -2.1340 H      1 <0>       0.0700
   38 H38      -8.0577    -4.9644     3.2029 H      1 <0>       0.0700
   39 H39      -6.2892    -4.7807     3.1195 H      1 <0>       0.0800
   40 H40      -7.3356    -3.3409     3.0974 H      1 <0>       0.0700
   41 H41      -5.2132    -4.1050     0.8716 H      1 <0>       0.1000
   42 H42      -6.1802    -2.6205     1.0683 H      1 <0>       0.0800
   43 H43      -2.0268    -3.5662    -0.9183 H      1 <0>       0.0900
   44 H44      -1.5647    -2.1420    -1.8819 H      1 <0>       0.0800
   45 H45      -0.2269    -2.1776     0.1613 H      1 <0>       0.1000
   46 H46      -1.6975    -2.3136     1.1593 H      1 <0>       0.0700
@<TRIPOS>BOND
   1    1    2 1
   2    1   24 1
   3    1   25 1
   4    1   26 1
   5    2    3 2
   6    2    4 am
   7    4   23 1
   8    4    5 1
   9    5    6 1
  10    5   27 1
  11    5   28 1
  12    6    7 1
  13    6   29 1
  14    6   30 1
  15    7    8 1
  16    7   22 1
  17    7   31 1
  18    8    9 am
  19    8   32 1
  20    9   10 2
  21    9   11 2
  22    9   12 am
  23   12   21 1
  24   12   13 1
  25   13   14 1
  26   13   33 1
  27   13   34 1
  28   14   15 1
  29   14   16 1
  30   14   17 1
  31   16   35 1
  32   16   36 1
  33   16   37 1
  34   17   18 1
  35   18   19 1
  36   18   20 1
  37   18   21 1
  38   20   38 1
  39   20   39 1
  40   20   40 1
  41   21   41 1
  42   21   42 1
  43   22   23 1
  44   22   43 1
  45   22   44 1
  46   23   45 1
  47   23   46 1
@<TRIPOS>MOLECULE
ZINC000051658798
45    46    1     0     0
SMALL
USER_CHARGES
@<TRIPOS>ATOM
1      C1     -1.3382   -0.6391   -0.3738 C.3      1 ZINC000051658798   -0.1200
2      C2      0.0021   -0.0041    0.0020 C.3      1 ZINC000051658798    0.0100
3      H3      0.7509   -0.2670   -0.7451 H        1 ZINC000051658798    0.0300
4      C4     -0.1494    1.4943    0.0556 C.2      1 ZINC000051658798    0.5000
5      O5     -0.3303    2.0509    1.1252 O.co2    1 ZINC000051658798   -0.6800
6      O6     -0.0912    2.1500   -0.9706 O.co2    1 ZINC000051658798   -0.7000
7      N7      0.4274   -0.5006    1.3175 N.3      1 ZINC000051658798   -0.5000
8      C8      1.6752    0.1456    1.7458 C.3      1 ZINC000051658798    0.0500
9      C9      1.9871   -0.2604    3.1902 C.3      1 ZINC000051658798    0.1300
10     N10     1.9870   -1.7289    3.2730 N.am     1 ZINC000051658798   -1.0100
11     S11     3.2596   -2.5419    3.9527 S.o2     1 ZINC000051658798    2.7800
12     O12     3.2359   -3.8533    3.4060 O.2      1 ZINC000051658798   -0.9800
13     O13     4.3847   -1.6795    3.8554 O.2      1 ZINC000051658798   -0.9700
14     N14     2.9320   -2.7027    5.5680 N.am     1 ZINC000051658798   -1.0000
15     C15     3.3730   -1.6636    6.4714 C.3      1 ZINC000051658798    0.1300
16     C16     4.8048   -1.9809    6.9688 C.3      1 ZINC000051658798   -0.1400
17     C17     4.7819   -3.1211    7.8979 C.3      1 ZINC000051658798   -0.1200
18     C18     4.2996   -4.4284    7.2766 C.3      1 ZINC000051658798   -0.1200
19     C19     2.7924   -4.4791    7.3249 C.3      1 ZINC000051658798   -0.1200
20     C20     2.1966   -3.8980    6.0253 C.3      1 ZINC000051658798    0.1100
21     C21     0.8265   -2.4560    2.7367 C.3      1 ZINC000051658798    0.1300
22     C22     0.5603   -1.9636    1.3102 C.3      1 ZINC000051658798    0.0400
23     H23    -2.0871   -0.3761    0.3733 H        1 ZINC000051658798    0.0600
24     H24    -1.6539   -0.2706   -1.3499 H        1 ZINC000051658798    0.0600
25     H25    -1.2287   -1.7229   -0.4126 H        1 ZINC000051658798    0.0400
26     H26     2.4905   -0.1703    1.0950 H        1 ZINC000051658798    0.0200
27     H27     1.5623    1.2283    1.6887 H        1 ZINC000051658798    0.1100
28     H28     2.9673    0.1223    3.4745 H        1 ZINC000051658798    0.0900
29     H29     1.2255    0.1440    3.8568 H        1 ZINC000051658798    0.0800
30     H30     3.3736   -0.7061    5.9506 H        1 ZINC000051658798    0.0800
31     H31     2.6957   -1.6123    7.3239 H        1 ZINC000051658798    0.0800
32     H32     5.4377   -2.2237    6.1153 H        1 ZINC000051658798    0.0700
33     H33     5.2112   -1.1078    7.4793 H        1 ZINC000051658798    0.0700
34     H34     5.7896   -3.2728    8.2846 H        1 ZINC000051658798    0.0600
35     H35     4.1279   -2.8732    8.7339 H        1 ZINC000051658798    0.0600
36     H36     4.6322   -4.4829    6.2400 H        1 ZINC000051658798    0.0600
37     H37     4.7098   -5.2697    7.8352 H        1 ZINC000051658798    0.0600
38     H38     2.4690   -5.5136    7.4399 H        1 ZINC000051658798    0.0700
39     H39     2.4381   -3.8950    8.1743 H        1 ZINC000051658798    0.0700
40     H40     1.1539   -3.6337    6.2012 H        1 ZINC000051658798    0.0700
41     H41     2.2406   -4.6579    5.2451 H        1 ZINC000051658798    0.0900
42     H42     1.0394   -3.5249    2.7213 H        1 ZINC000051658798    0.0900
43     H43    -0.0467   -2.2627    3.3598 H        1 ZINC000051658798    0.0700
44     H44    -0.3612   -2.4106    0.9371 H        1 ZINC000051658798    0.0900
45     H45     1.3911   -2.2501    0.6655 H        1 ZINC000051658798    0.0300
@<TRIPOS>BOND
1     1     2     1
2     1     23    1
3     1     24    1
4     1     25    1
5     2     3     1
6     2     4     1
7     2     7     1
8     4     5     ar
9     4     6     ar
10    7     22    1
11    7     8     1
12    8     9     1
13    8     26    1
14    8     27    1
15    9     10    1
16    9     28    1
17    9     29    1
18    10    11    am
19    10    21    1
20    11    12    2
21    11    13    2
22    11    14    am
23    14    20    1
24    14    15    1
25    15    16    1
26    15    30    1
27    15    31    1
28    16    17    1
29    16    32    1
30    16    33    1
31    17    18    1
32    17    34    1
33    17    35    1
34    18    19    1
35    18    36    1
36    18    37    1
37    19    20    1
38    19    38    1
39    19    39    1
40    20    40    1
41    20    41    1
42    21    22    1
43    21    42    1
44    21    43    1
45    22    44    1
46    22    45    1
@<TRIPOS>SUBSTRUCTURE
1   ZINC000051658798 1     RESIDUE    1   A     ZIN   1

@<TRIPOS>MOLECULE
ZINC000051658798
46    47    1     0     0
SMALL
USER_CHARGES
@<TRIPOS>ATOM
1      C1     -0.0187    1.5258    0.0104 C.3      1 ZINC000051658798   -0.1600
2      C2      0.0021   -0.0041    0.0020 C.3      1 ZINC000051658798   -0.0600
3      H3     -1.0205   -0.3814    0.0098 H        1 ZINC000051658798    0.1300
4      C4      0.7074   -0.4901   -1.2379 C.2      1 ZINC000051658798    0.4900
5      O5      1.9121   -0.6771   -1.2202 O.co2    1 ZINC000051658798   -0.6700
6      O6      0.0735   -0.6963   -2.2587 O.co2    1 ZINC000051658798   -0.6400
7      N7      0.7126   -0.4907    1.1921 N.4      1 ZINC000051658798   -0.3600
8      H8      1.6589   -0.1408    1.1838 H        1 ZINC000051658798    0.4200
9      C9      0.7353   -1.9588    1.1802 C.3      1 ZINC000051658798   -0.0100
10     C10     1.5735   -2.4653    2.3586 C.3      1 ZINC000051658798    0.1000
11     N11     1.0408   -1.8763    3.5970 N.am     1 ZINC000051658798   -1.0200
12     S12     0.6881   -2.8247    4.9079 S.o2     1 ZINC000051658798    2.7800
13     O13    -0.2726   -2.1102    5.6732 O.2      1 ZINC000051658798   -0.9700
14     O14     0.4635   -4.1351    4.4063 O.2      1 ZINC000051658798   -0.9600
15     N15     2.0573   -2.9075    5.8356 N.am     1 ZINC000051658798   -0.9900
16     C16     3.0068   -3.9667    5.5769 C.3      1 ZINC000051658798    0.1200
17     C17     2.6401   -5.2111    6.4225 C.3      1 ZINC000051658798   -0.1400
18     C18     2.9271   -4.9654    7.8441 C.3      1 ZINC000051658798   -0.1200
19     C19     2.1118   -3.8344    8.4635 C.3      1 ZINC000051658798   -0.1200
20     C20     2.7976   -2.5177    8.1939 C.3      1 ZINC000051658798   -0.1300
21     C21     2.2609   -1.8934    6.8887 C.3      1 ZINC000051658798    0.1100
22     C22     0.8309   -0.4208    3.6379 C.3      1 ZINC000051658798    0.1000
23     C23     0.0265   -0.0127    2.3991 C.3      1 ZINC000051658798   -0.0300
24     H24     1.0039    1.9031    0.0027 H        1 ZINC000051658798    0.0800
25     H25    -0.5459    1.8868   -0.8726 H        1 ZINC000051658798    0.1000
26     H26    -0.5289    1.8773    0.9072 H        1 ZINC000051658798    0.0700
27     H27    -0.2826   -2.3388    1.2683 H        1 ZINC000051658798    0.1200
28     H28     1.1740   -2.3080    0.2455 H        1 ZINC000051658798    0.1500
29     H29     1.5099   -3.5521    2.4131 H        1 ZINC000051658798    0.1300
30     H30     2.6122   -2.1624    2.2262 H        1 ZINC000051658798    0.1000
31     H31     2.9812   -4.2266    4.5186 H        1 ZINC000051658798    0.0800
32     H32     4.0085   -3.6292    5.8432 H        1 ZINC000051658798    0.0800
33     H33     1.5792   -5.4299    6.3012 H        1 ZINC000051658798    0.0700
34     H34     3.2235   -6.0654    6.0791 H        1 ZINC000051658798    0.0800
35     H35     2.7275   -5.8811    8.4008 H        1 ZINC000051658798    0.0600
36     H36     3.9855   -4.7258    7.9471 H        1 ZINC000051658798    0.0600
37     H37     1.1146   -3.8218    8.0236 H        1 ZINC000051658798    0.0600
38     H38     2.0330   -3.9898    9.5395 H        1 ZINC000051658798    0.0700
39     H39     2.6109   -1.8364    9.0240 H        1 ZINC000051658798    0.0800
40     H40     3.8708   -2.6822    8.0981 H        1 ZINC000051658798    0.0700
41     H41     2.9711   -1.1456    6.5358 H        1 ZINC000051658798    0.0700
42     H42     1.3087   -1.4049    7.0954 H        1 ZINC000051658798    0.0900
43     H43     0.2763   -0.1560    4.5382 H        1 ZINC000051658798    0.1300
44     H44     1.7945    0.0885    3.6347 H        1 ZINC000051658798    0.0900
45     H45    -0.0568    1.0735    2.3615 H        1 ZINC000051658798    0.1400
46     H46    -0.9696   -0.4521    2.4516 H        1 ZINC000051658798    0.1300
@<TRIPOS>BOND
1     1     2     1
2     1     24    1
3     1     25    1
4     1     26    1
5     2     3     1
6     2     4     1
7     2     7     1
8     4     5     ar
9     4     6     ar
10    7     8     1
11    7     23    1
12    7     9     1
13    9     10    1
14    9     27    1
15    9     28    1
16    10    11    1
17    10    29    1
18    10    30    1
19    11    12    am
20    11    22    1
21    12    13    2
22    12    14    2
23    12    15    am
24    15    21    1
25    15    16    1
26    16    17    1
27    16    31    1
28    16    32    1
29    17    18    1
30    17    33    1
31    17    34    1
32    18    19    1
33    18    35    1
34    18    36    1
35    19    20    1
36    19    37    1
37    19    38    1
38    20    21    1
39    20    39    1
40    20    40    1
41    21    41    1
42    21    42    1
43    22    23    1
44    22    43    1
45    22    44    1
46    23    45    1
47    23    46    1
@<TRIPOS>SUBSTRUCTURE
1   ZINC000051658798 1     RESIDUE    1   A     ZIN   1
@<TRIPOS>MOLECULE
ZINC000053244873
46    47    1     0     0
SMALL
USER_CHARGES
@<TRIPOS>ATOM
1      C1     -0.1037    1.8105   -0.7788 C.3      1 ZINC000053244873    0.0400
2      N2     -0.1100    0.4062   -0.3617 N.am     1 ZINC000053244873   -1.0200
3      C3     -0.3569    0.0595    1.0401 C.3      1 ZINC000053244873    0.1400
4      H4     -1.2016   -0.6266    1.1020 H        1 ZINC000053244873    0.1300
5      C5      0.8889   -0.6088    1.6287 C.3      1 ZINC000053244873   -0.1600
6      C6      2.0499    0.3896    1.6077 C.3      1 ZINC000053244873   -0.1600
7      C7      1.6473    1.6480    2.3796 C.3      1 ZINC000053244873   -0.0100
8      N8      0.4670    2.2545    1.7525 N.4      1 ZINC000053244873   -0.4000
9      H9      0.6677    2.4555    0.7843 H        1 ZINC000053244873    0.4200
10     C10     0.1303    3.5025    2.4504 C.3      1 ZINC000053244873   -0.0500
11     C11    -0.6714    1.3300    1.8329 C.3      1 ZINC000053244873   -0.0100
12     S12     0.1621   -0.7894   -1.4748 S.o2     1 ZINC000053244873    2.7800
13     O13    -0.2077   -2.0110   -0.8500 O.2      1 ZINC000053244873   -0.9600
14     O14    -0.4069   -0.3377   -2.6960 O.2      1 ZINC000053244873   -0.9600
15     N15     1.7978   -0.8666   -1.7213 N.am     1 ZINC000053244873   -1.0000
16     C16     2.4861    0.1669   -2.5067 C.3      1 ZINC000053244873    0.1200
17     C17     3.6421    0.7304   -1.6744 C.3      1 ZINC000053244873   -0.1000
18     C18     4.5450   -0.4184   -1.2190 C.3      1 ZINC000053244873   -0.1600
19     C19     5.7022    0.1356   -0.4285 C.2      1 ZINC000053244873    0.4900
20     O20     6.2126   -0.5324    0.4545 O.co2    1 ZINC000053244873   -0.6900
21     O21     6.1280    1.2518   -0.6720 O.co2    1 ZINC000053244873   -0.7000
22     C22     3.7432   -1.3826   -0.3417 C.3      1 ZINC000053244873   -0.1200
23     C23     2.5892   -1.9667   -1.1538 C.3      1 ZINC000053244873    0.1100
24     H24     0.8993    2.2203   -0.6601 H        1 ZINC000053244873    0.0700
25     H25    -0.4033    1.8803   -1.8245 H        1 ZINC000053244873    0.1200
26     H26    -0.8025    2.3758   -0.1622 H        1 ZINC000053244873    0.0800
27     H27     0.6884   -0.9130    2.6560 H        1 ZINC000053244873    0.1000
28     H28     1.1494   -1.4834    1.0326 H        1 ZINC000053244873    0.1000
29     H29     2.9253   -0.0602    2.0760 H        1 ZINC000053244873    0.1300
30     H30     2.2836    0.6544    0.5765 H        1 ZINC000053244873    0.1000
31     H31     1.4141    1.3822    3.4107 H        1 ZINC000053244873    0.1300
32     H32     2.4718    2.3609    2.3668 H        1 ZINC000053244873    0.1300
33     H33     0.9714    4.1928    2.3866 H        1 ZINC000053244873    0.1200
34     H34    -0.7462    3.9538    1.9854 H        1 ZINC000053244873    0.1200
35     H35    -0.0842    3.2869    3.4972 H        1 ZINC000053244873    0.1200
36     H36    -1.5577    1.8086    1.4165 H        1 ZINC000053244873    0.1400
37     H37    -0.8555    1.0709    2.8755 H        1 ZINC000053244873    0.1400
38     H38     2.8767   -0.2716   -3.4250 H        1 ZINC000053244873    0.0800
39     H39     1.7870    0.9670   -2.7499 H        1 ZINC000053244873    0.0700
40     H40     4.2196    1.4289   -2.2798 H        1 ZINC000053244873    0.0800
41     H41     3.2437    1.2478   -0.8017 H        1 ZINC000053244873    0.0500
42     H42     4.9231   -0.9508   -2.0917 H        1 ZINC000053244873    0.0700
43     H43     4.3927   -2.1879    0.0013 H        1 ZINC000053244873    0.0800
44     H44     3.3439   -0.8453    0.5185 H        1 ZINC000053244873    0.0700
45     H45     1.9587   -2.5762   -0.5065 H        1 ZINC000053244873    0.0900
46     H46     2.9856   -2.5795   -1.9634 H        1 ZINC000053244873    0.0800
@<TRIPOS>BOND
1     1     2     1
2     1     24    1
3     1     25    1
4     1     26    1
5     2     3     1
6     2     12    am
7     3     4     1
8     3     11    1
9     3     5     1
10    5     6     1
11    5     27    1
12    5     28    1
13    6     7     1
14    6     29    1
15    6     30    1
16    7     8     1
17    7     31    1
18    7     32    1
19    8     9     1
20    8     10    1
21    8     11    1
22    10    33    1
23    10    34    1
24    10    35    1
25    11    36    1
26    11    37    1
27    12    13    2
28    12    14    2
29    12    15    am
30    15    23    1
31    15    16    1
32    16    17    1
33    16    38    1
34    16    39    1
35    17    18    1
36    17    40    1
37    17    41    1
38    18    19    1
39    18    22    1
40    18    42    1
41    19    20    ar
42    19    21    ar
43    22    23    1
44    22    43    1
45    22    44    1
46    23    45    1
47    23    46    1
@<TRIPOS>SUBSTRUCTURE
1   ZINC000053244873 1     RESIDUE    1   A     ZIN   1

@<TRIPOS>MOLECULE
ZINC000053244873
45    46    1     0     0
SMALL
USER_CHARGES
@<TRIPOS>ATOM
1      C1     -0.0178    1.4608    0.0101 C.3      1 ZINC000053244873    0.0800
2      N2      0.0021   -0.0041    0.0020 N.am     1 ZINC000053244873   -1.0000
3      C3      0.0241   -0.7433    1.2666 C.3      1 ZINC000053244873    0.1500
4      H4      0.0368   -1.8139    1.0622 H        1 ZINC000053244873    0.1100
5      C5      1.2756   -0.3598    2.0612 C.3      1 ZINC000053244873   -0.1400
6      C6      1.2603   -1.0908    3.4066 C.3      1 ZINC000053244873   -0.1200
7      C7     -0.0205   -0.7306    4.1628 C.3      1 ZINC000053244873    0.0500
8      N8     -1.1887   -1.1179    3.3617 N.3      1 ZINC000053244873   -0.5400
9      C9     -2.4339   -0.9143    4.1140 C.3      1 ZINC000053244873    0.0300
10     C10    -1.2214   -0.3940    2.0844 C.3      1 ZINC000053244873    0.0500
11     S11    -0.0004   -0.8243   -1.4366 S.o2     1 ZINC000053244873    2.7800
12     O12    -0.5247   -2.1160   -1.1611 O.2      1 ZINC000053244873   -0.9800
13     O13    -0.5660    0.0551   -2.3989 O.2      1 ZINC000053244873   -0.9800
14     N14     1.5805   -1.0455   -1.8774 N.am     1 ZINC000053244873   -1.0000
15     C15     2.2760   -0.0445   -2.6977 C.3      1 ZINC000053244873    0.1200
16     C16     3.5702    0.3628   -1.9864 C.3      1 ZINC000053244873   -0.1000
17     C17     4.3981   -0.8888   -1.6860 C.3      1 ZINC000053244873   -0.1500
18     C18     5.6877   -0.4890   -1.0167 C.2      1 ZINC000053244873    0.5000
19     O19     6.2250   -1.2466   -0.2269 O.co2    1 ZINC000053244873   -0.7000
20     O20     6.1938    0.5921   -1.2651 O.co2    1 ZINC000053244873   -0.7000
21     C21     3.6079   -1.8147   -0.7584 C.3      1 ZINC000053244873   -0.1100
22     C22     2.3159   -2.2437   -1.4506 C.3      1 ZINC000053244873    0.1200
23     H23     1.0048    1.8381    0.0023 H        1 ZINC000053244873    0.0600
24     H24    -0.5450    1.8219   -0.8730 H        1 ZINC000053244873    0.0800
25     H25    -0.5280    1.8123    0.9069 H        1 ZINC000053244873    0.0700
26     H26     2.1652   -0.6470    1.5007 H        1 ZINC000053244873    0.0800
27     H27     1.2831    0.7168    2.2317 H        1 ZINC000053244873    0.0700
28     H28     1.2920   -2.1669    3.2364 H        1 ZINC000053244873    0.0800
29     H29     2.1271   -0.7890    3.9945 H        1 ZINC000053244873    0.0700
30     H30    -0.0413   -1.2606    5.1150 H        1 ZINC000053244873    0.0800
31     H31    -0.0449    0.3438    4.3447 H        1 ZINC000053244873    0.0300
32     H32    -2.5630    0.1478    4.3224 H        1 ZINC000053244873    0.0200
33     H33    -3.2774   -1.2741    3.5248 H        1 ZINC000053244873    0.0700
34     H34    -2.3853   -1.4655    5.0531 H        1 ZINC000053244873    0.0700
35     H35    -1.2402    0.6790    2.2755 H        1 ZINC000053244873    0.0400
36     H36    -2.1141   -0.6793    1.5280 H        1 ZINC000053244873    0.0800
37     H37     2.5134   -0.4715   -3.6721 H        1 ZINC000053244873    0.0700
38     H38     1.6383    0.8303   -2.8254 H        1 ZINC000053244873    0.0800
39     H39     4.1428    1.0324   -2.6282 H        1 ZINC000053244873    0.0800
40     H40     3.3279    0.8714   -1.0533 H        1 ZINC000053244873    0.0600
41     H41     4.6188   -1.4104   -2.6173 H        1 ZINC000053244873    0.0600
42     H42     4.2074   -2.6949   -0.5261 H        1 ZINC000053244873    0.0800
43     H43     3.3653   -1.2856    0.1632 H        1 ZINC000053244873    0.0600
44     H44     1.7047   -2.8218   -0.7576 H        1 ZINC000053244873    0.0800
45     H45     2.5537   -2.8500   -2.3247 H        1 ZINC000053244873    0.0700
@<TRIPOS>BOND
1     1     2     1
2     1     23    1
3     1     24    1
4     1     25    1
5     2     3     1
6     2     11    am
7     3     4     1
8     3     10    1
9     3     5     1
10    5     6     1
11    5     26    1
12    5     27    1
13    6     7     1
14    6     28    1
15    6     29    1
16    7     8     1
17    7     30    1
18    7     31    1
19    8     9     1
20    8     10    1
21    9     32    1
22    9     33    1
23    9     34    1
24    10    35    1
25    10    36    1
26    11    12    2
27    11    13    2
28    11    14    am
29    14    22    1
30    14    15    1
31    15    16    1
32    15    37    1
33    15    38    1
34    16    17    1
35    16    39    1
36    16    40    1
37    17    18    1
38    17    21    1
39    17    41    1
40    18    19    ar
41    18    20    ar
42    21    22    1
43    21    42    1
44    21    43    1
45    22    44    1
46    22    45    1
@<TRIPOS>SUBSTRUCTURE
1   ZINC000053244873 1     RESIDUE    1   A     ZIN   1

@<TRIPOS>MOLECULE
ZINC000053244873
46    47    1     0     0
SMALL
USER_CHARGES
@<TRIPOS>ATOM
1      C1     -0.0178    1.4608    0.0101 C.3      1 ZINC000053244873    0.0700
2      N2      0.0021   -0.0041    0.0020 N.am     1 ZINC000053244873   -1.0000
3      C3      0.0241   -0.7433    1.2666 C.3      1 ZINC000053244873    0.1300
4      H4      0.0368   -1.8139    1.0623 H        1 ZINC000053244873    0.1200
5      C5      1.2756   -0.3596    2.0615 C.3      1 ZINC000053244873   -0.1600
6      C6      1.2493   -1.0775    3.4140 C.3      1 ZINC000053244873   -0.1400
7      C7     -0.0407   -0.7149    4.1528 C.3      1 ZINC000053244873   -0.0100
8      N8     -1.1997   -1.1307    3.3539 N.4      1 ZINC000053244873   -0.3800
9      H9     -1.1397   -2.1201    3.1656 H        1 ZINC000053244873    0.4300
10     C10    -2.4333   -0.8497    4.1004 C.3      1 ZINC000053244873   -0.0400
11     C11    -1.2211   -0.3939    2.0845 C.3      1 ZINC000053244873   -0.0200
12     S12    -0.0004   -0.8243   -1.4366 S.o2     1 ZINC000053244873    2.7800
13     O13    -0.5247   -2.1160   -1.1611 O.2      1 ZINC000053244873   -0.9800
14     O14    -0.5660    0.0551   -2.3989 O.2      1 ZINC000053244873   -0.9600
15     N15     1.5805   -1.0455   -1.8774 N.am     1 ZINC000053244873   -0.9900
16     C16     2.2760   -0.0445   -2.6977 C.3      1 ZINC000053244873    0.1200
17     C17     3.5702    0.3628   -1.9864 C.3      1 ZINC000053244873   -0.1000
18     C18     4.3981   -0.8888   -1.6860 C.3      1 ZINC000053244873   -0.1600
19     C19     5.6877   -0.4890   -1.0167 C.2      1 ZINC000053244873    0.4900
20     O20     6.2250   -1.2466   -0.2269 O.co2    1 ZINC000053244873   -0.7000
21     O21     6.1938    0.5921   -1.2651 O.co2    1 ZINC000053244873   -0.6900
22     C22     3.6079   -1.8147   -0.7584 C.3      1 ZINC000053244873   -0.1000
23     C23     2.3159   -2.2437   -1.4506 C.3      1 ZINC000053244873    0.1200
24     H24     1.0048    1.8381    0.0023 H        1 ZINC000053244873    0.0700
25     H25    -0.5450    1.8219   -0.8730 H        1 ZINC000053244873    0.0900
26     H26    -0.5280    1.8123    0.9069 H        1 ZINC000053244873    0.0700
27     H27     2.1653   -0.6587    1.5073 H        1 ZINC000053244873    0.1100
28     H28     1.2896    0.7185    2.2213 H        1 ZINC000053244873    0.0900
29     H29     1.2870   -2.1552    3.2548 H        1 ZINC000053244873    0.0900
30     H30     2.1087   -0.7664    4.0079 H        1 ZINC000053244873    0.1200
31     H31    -0.0625   -1.2242    5.1162 H        1 ZINC000053244873    0.1300
32     H32    -0.0772    0.3629    4.3116 H        1 ZINC000053244873    0.1300
33     H33    -2.4979    0.2186    4.3066 H        1 ZINC000053244873    0.1200
34     H34    -3.2947   -1.1581    3.5080 H        1 ZINC000053244873    0.1200
35     H35    -2.4227   -1.4013    5.0405 H        1 ZINC000053244873    0.1200
36     H36    -1.2325    0.6771    2.2867 H        1 ZINC000053244873    0.1300
37     H37    -2.1141   -0.6661    1.5219 H        1 ZINC000053244873    0.1300
38     H38     2.5134   -0.4715   -3.6721 H        1 ZINC000053244873    0.0700
39     H39     1.6383    0.8303   -2.8254 H        1 ZINC000053244873    0.0800
40     H40     4.1428    1.0324   -2.6282 H        1 ZINC000053244873    0.0800
41     H41     3.3279    0.8714   -1.0533 H        1 ZINC000053244873    0.0500
42     H42     4.6188   -1.4104   -2.6173 H        1 ZINC000053244873    0.0700
43     H43     4.2074   -2.6949   -0.5261 H        1 ZINC000053244873    0.0800
44     H44     3.3653   -1.2856    0.1632 H        1 ZINC000053244873    0.0500
45     H45     1.7047   -2.8218   -0.7576 H        1 ZINC000053244873    0.0800
46     H46     2.5537   -2.8500   -2.3247 H        1 ZINC000053244873    0.0700
@<TRIPOS>BOND
1     1     2     1
2     1     24    1
3     1     25    1
4     1     26    1
5     2     3     1
6     2     12    am
7     3     4     1
8     3     11    1
9     3     5     1
10    5     6     1
11    5     27    1
12    5     28    1
13    6     7     1
14    6     29    1
15    6     30    1
16    7     8     1
17    7     31    1
18    7     32    1
19    8     9     1
20    8     10    1
21    8     11    1
22    10    33    1
23    10    34    1
24    10    35    1
25    11    36    1
26    11    37    1
27    12    13    2
28    12    14    2
29    12    15    am
30    15    23    1
31    15    16    1
32    16    17    1
33    16    38    1
34    16    39    1
35    17    18    1
36    17    40    1
37    17    41    1
38    18    19    1
39    18    22    1
40    18    42    1
41    19    20    ar
42    19    21    ar
43    22    23    1
44    22    43    1
45    22    44    1
46    23    45    1
47    23    46    1
@<TRIPOS>SUBSTRUCTURE
1   ZINC000053244873 1     RESIDUE    1   A     ZIN   1
@<TRIPOS>MOLECULE
ZINC000062842397
42    43    1     0     0
SMALL
USER_CHARGES
@<TRIPOS>ATOM
1      C1      1.2638    2.7824   -0.1786 C.3      1 ZINC000062842397   -0.1200
2      C2      0.7025    1.4056    0.1825 C.3      1 ZINC000062842397   -0.1300
3      C3     -0.7770    1.5199    0.4455 C.2      1 ZINC000062842397    0.5000
4      O4     -1.5228    1.9216   -0.4314 O.co2    1 ZINC000062842397   -0.7000
5      O5     -1.2281    1.2108    1.5351 O.co2    1 ZINC000062842397   -0.7000
6      C6      0.9403    0.4375   -0.9787 C.3      1 ZINC000062842397   -0.1000
7      C7      2.4425    0.3501   -1.2658 C.3      1 ZINC000062842397    0.1100
8      N8      3.1409   -0.0126   -0.0251 N.am     1 ZINC000062842397   -0.6000
9      C9      3.9759   -1.0700    0.0090 C.2      1 ZINC000062842397    0.5100
10     O10     4.1568   -1.7323   -0.9907 O.2      1 ZINC000062842397   -0.5300
11     C11     4.6848   -1.4293    1.2894 C.3      1 ZINC000062842397    0.1300
12     H12     4.9192   -0.5242    1.8497 H        1 ZINC000062842397    0.1000
13     C13     3.7928   -2.3573    2.1406 C.3      1 ZINC000062842397   -0.1200
14     C14     4.3320   -3.7705    1.7950 C.3      1 ZINC000062842397   -0.1300
15     C15     5.8469   -3.4932    1.6284 C.3      1 ZINC000062842397    0.1200
16     N16     5.9216   -2.1644    0.9868 N.am     1 ZINC000062842397   -0.9900
17     S17     7.1854   -1.6018    0.0767 S.o2     1 ZINC000062842397    2.6200
18     C18     8.3647   -0.9521    1.2924 C.3      1 ZINC000062842397   -0.6800
19     O19     7.7079   -2.7633   -0.5535 O.2      1 ZINC000062842397   -0.9500
20     O20     6.6233   -0.5438   -0.6874 O.2      1 ZINC000062842397   -0.9300
21     C21     2.9119    0.7996    1.1777 C.3      1 ZINC000062842397    0.1000
22     C22     1.4045    0.8819    1.4375 C.3      1 ZINC000062842397   -0.1000
23     H23     2.3340    2.7000   -0.3684 H        1 ZINC000062842397    0.0400
24     H24     0.7640    3.1556   -1.0725 H        1 ZINC000062842397    0.0600
25     H25     1.0935    3.4724    0.6478 H        1 ZINC000062842397    0.0400
26     H26     0.5628   -0.5497   -0.7124 H        1 ZINC000062842397    0.0600
27     H27     0.4207    0.7991   -1.8661 H        1 ZINC000062842397    0.0800
28     H28     2.6259   -0.4110   -2.0242 H        1 ZINC000062842397    0.0900
29     H29     2.8038    1.3158   -1.6195 H        1 ZINC000062842397    0.0700
30     H30     3.9185   -2.1456    3.2024 H        1 ZINC000062842397    0.0900
31     H31     2.7470   -2.2615    1.8484 H        1 ZINC000062842397    0.0900
32     H32     4.1502   -4.4687    2.6121 H        1 ZINC000062842397    0.0900
33     H33     3.8975   -4.1379    0.8654 H        1 ZINC000062842397    0.0800
34     H34     6.3378   -3.4712    2.6014 H        1 ZINC000062842397    0.0700
35     H35     6.3030   -4.2494    0.9894 H        1 ZINC000062842397    0.0900
36     H36     8.7010   -1.7613    1.9407 H        1 ZINC000062842397    0.1300
37     H37     9.2216   -0.5223    0.7736 H        1 ZINC000062842397    0.1300
38     H38     7.8802   -0.1825    1.8933 H        1 ZINC000062842397    0.1300
39     H39     3.4050    0.3350    2.0316 H        1 ZINC000062842397    0.0700
40     H40     3.3114    1.8019    1.0233 H        1 ZINC000062842397    0.0700
41     H41     1.2152    1.5598    2.2698 H        1 ZINC000062842397    0.0700
42     H42     1.0225   -0.1095    1.6810 H        1 ZINC000062842397    0.0600
@<TRIPOS>BOND
1     1     2     1
2     1     23    1
3     1     24    1
4     1     25    1
5     2     22    1
6     2     3     1
7     2     6     1
8     3     4     ar
9     3     5     ar
10    6     7     1
11    6     26    1
12    6     27    1
13    7     8     1
14    7     28    1
15    7     29    1
16    8     9     am
17    8     21    1
18    9     10    2
19    9     11    1
20    11    12    1
21    11    16    1
22    11    13    1
23    13    14    1
24    13    30    1
25    13    31    1
26    14    15    1
27    14    32    1
28    14    33    1
29    15    16    1
30    15    34    1
31    15    35    1
32    16    17    am
33    17    18    1
34    17    19    2
35    17    20    2
36    18    36    1
37    18    37    1
38    18    38    1
39    21    22    1
40    21    39    1
41    21    40    1
42    22    41    1
43    22    42    1
@<TRIPOS>SUBSTRUCTURE
1   ZINC000062842397 1     RESIDUE    1   A     ZIN   1
@<TRIPOS>MOLECULE
ZINC000062913614
42    43    1     0     0
SMALL
USER_CHARGES
@<TRIPOS>ATOM
1      C1     -2.0255   -1.6931   -0.2857 C.3      1 ZINC000062913614   -0.1100
2      C2     -1.1591   -2.6157    0.5739 C.3      1 ZINC000062913614   -0.1500
3      C3     -1.9956   -3.2738    1.6408 C.2      1 ZINC000062913614    0.5100
4      O4     -2.9458   -3.9704    1.3272 O.co2    1 ZINC000062913614   -0.7000
5      O5     -1.7221   -3.1097    2.8176 O.co2    1 ZINC000062913614   -0.6800
6      C6     -0.4725   -3.6838   -0.3084 C.3      1 ZINC000062913614   -0.1000
7      C7      0.9325   -3.0778   -0.5521 C.3      1 ZINC000062913614    0.0900
8      N8      1.2533   -2.4330    0.7422 N.am     1 ZINC000062913614   -0.5900
9      C9      2.4498   -2.4082    1.3622 C.2      1 ZINC000062913614    0.5400
10     O10     2.5697   -1.8384    2.4261 O.2      1 ZINC000062913614   -0.5600
11     C11     3.6385   -3.0884    0.7335 C.3      1 ZINC000062913614    0.1400
12     H12     3.3180   -3.6426   -0.1487 H        1 ZINC000062913614    0.0900
13     C13     4.6777   -2.0376    0.3304 C.3      1 ZINC000062913614   -0.1200
14     C14     5.9379   -2.7412   -0.1785 C.3      1 ZINC000062913614   -0.1100
15     C15     6.5302   -3.6021    0.9396 C.3      1 ZINC000062913614   -0.1400
16     C16     5.5120   -4.6707    1.3496 C.3      1 ZINC000062913614    0.1200
17     N17     4.2464   -4.0118    1.7013 N.am     1 ZINC000062913614   -0.9900
18     S18     3.5228   -4.2999    3.1627 S.o2     1 ZINC000062913614    2.6000
19     C19     4.1558   -2.9907    4.2471 C.3      1 ZINC000062913614   -0.6700
20     O20     2.1370   -4.1120    2.9107 O.2      1 ZINC000062913614   -0.9200
21     O21     4.0299   -5.5661    3.5613 O.2      1 ZINC000062913614   -0.9700
22     C22    -0.0040   -1.8227    1.2131 C.3      1 ZINC000062913614    0.1200
23     H23    -1.4158   -1.2539   -1.0754 H        1 ZINC000062913614    0.0400
24     H24    -2.8376   -2.2679   -0.7308 H        1 ZINC000062913614    0.0600
25     H25    -2.4402   -0.9001    0.3366 H        1 ZINC000062913614    0.0500
26     H26    -0.3969   -4.6327    0.2227 H        1 ZINC000062913614    0.0700
27     H27    -1.0076   -3.8088   -1.2498 H        1 ZINC000062913614    0.0800
28     H28     1.6549   -3.8613   -0.7809 H        1 ZINC000062913614    0.0700
29     H29     0.8990   -2.3385   -1.3523 H        1 ZINC000062913614    0.0700
30     H30     4.2695   -1.4064   -0.4590 H        1 ZINC000062913614    0.0800
31     H31     4.9281   -1.4231    1.1952 H        1 ZINC000062913614    0.0800
32     H32     5.6822   -3.3746   -1.0279 H        1 ZINC000062913614    0.0700
33     H33     6.6698   -1.9955   -0.4891 H        1 ZINC000062913614    0.0700
34     H34     7.4406   -4.0845    0.5838 H        1 ZINC000062913614    0.0800
35     H35     6.7632   -2.9729    1.7986 H        1 ZINC000062913614    0.0700
36     H36     5.3462   -5.3556    0.5180 H        1 ZINC000062913614    0.0700
37     H37     5.8884   -5.2227    2.2108 H        1 ZINC000062913614    0.0900
38     H38     3.8797   -2.0175    3.8411 H        1 ZINC000062913614    0.1600
39     H39     3.7264   -3.1042    5.2425 H        1 ZINC000062913614    0.1200
40     H40     5.2415   -3.0637    4.3092 H        1 ZINC000062913614    0.1100
41     H41    -0.0510   -0.7800    0.8989 H        1 ZINC000062913614    0.0500
42     H42    -0.0647   -1.8888    2.2994 H        1 ZINC000062913614    0.1100
@<TRIPOS>BOND
1     1     2     1
2     1     23    1
3     1     24    1
4     1     25    1
5     2     22    1
6     2     3     1
7     2     6     1
8     3     4     ar
9     3     5     ar
10    6     7     1
11    6     26    1
12    6     27    1
13    7     8     1
14    7     28    1
15    7     29    1
16    8     9     am
17    8     22    1
18    9     10    2
19    9     11    1
20    11    12    1
21    11    17    1
22    11    13    1
23    13    14    1
24    13    30    1
25    13    31    1
26    14    15    1
27    14    32    1
28    14    33    1
29    15    16    1
30    15    34    1
31    15    35    1
32    16    17    1
33    16    36    1
34    16    37    1
35    17    18    am
36    18    19    1
37    18    20    2
38    18    21    2
39    19    38    1
40    19    39    1
41    19    40    1
42    22    41    1
43    22    42    1
@<TRIPOS>SUBSTRUCTURE
1   ZINC000062913614 1     RESIDUE    1   A     ZIN   1
@<TRIPOS>MOLECULE
ZINC000069770205
  38   40    0    0    0
SMALL
USER_CHARGES
NO_NAME
@<TRIPOS>ATOM
    1 C1       -0.0848     1.7700     0.0510 C.3    1 <0>      -0.6400
    2 S2       -0.0426    -0.0434     0.0286 S.o2   1 <0>       2.5600
    3 O3        0.8035    -0.5353     1.0589 O.2    1 <0>      -1.0200
    4 O4       -1.3487    -0.5702    -0.1607 O.2    1 <0>      -1.0200
    5 N5        0.7569    -0.4209    -1.3716 N.pl3  1 <0>      -1.1300
    6 C6        0.9651    -1.7108    -1.7019 C.2    1 <0>       0.5200
    7 O7        0.5668    -2.5951    -0.9738 O.2    1 <0>      -0.6100
    8 C8        1.6927    -2.0543    -2.9761 C.3    1 <0>       0.1400
    9 H9        2.6910    -1.6168    -2.9623 H      1 <0>       0.0900
   10 C10       0.9034    -1.5225    -4.1910 C.3    1 <0>      -0.1000
   11 C11       1.0833    -2.6491    -5.2425 C.3    1 <0>      -0.1400
   12 C12       1.0726    -3.9139    -4.3481 C.3    1 <0>       0.0900
   13 N13       1.7887    -3.5144    -3.1191 N.am   1 <0>      -0.6000
   14 C14       2.4212    -4.3501    -2.2717 C.2    1 <0>       0.5800
   15 O15       3.0683    -3.9014    -1.3453 O.2    1 <0>      -0.5100
   16 C16       2.3284    -5.8101    -2.4683 C.ar   1 <0>      -0.1000
   17 C17       3.3258    -6.6489    -1.9663 C.ar   1 <0>      -0.0500
   18 C18       3.2373    -8.0118    -2.1504 C.ar   1 <0>      -0.1100
   19 C19       2.1587    -8.5558    -2.8342 C.ar   1 <0>       0.0500
   20 O20       1.8458    -9.8466    -3.1429 O.3    1 <0>      -0.3100
   21 C21       0.4461    -9.8341    -3.4797 C.3    1 <0>       0.2100
   22 O22       0.2212    -8.4960    -3.9613 O.3    1 <0>      -0.3100
   23 C23       1.1585    -7.7229    -3.3384 C.ar   1 <0>       0.0200
   24 C24       1.2392    -6.3570    -3.1523 C.ar   1 <0>      -0.0800
   25 H25       0.9341     2.1572     0.0473 H      1 <0>       0.1100
   26 H26      -0.6143     2.1320    -0.8302 H      1 <0>       0.1100
   27 H27      -0.5995     2.1104     0.9496 H      1 <0>       0.1000
   28 H28      -0.1495    -1.3935    -3.9403 H      1 <0>       0.0800
   29 H29       1.3328    -0.5873    -4.5504 H      1 <0>       0.0900
   30 H30       0.2521    -2.6620    -5.9474 H      1 <0>       0.0800
   31 H31       2.0348    -2.5479    -5.7646 H      1 <0>       0.0800
   32 H32       0.0484    -4.2046    -4.1144 H      1 <0>       0.0700
   33 H33       1.5968    -4.7322    -4.8419 H      1 <0>       0.0800
   34 H34       4.1668    -6.2294    -1.4341 H      1 <0>       0.1500
   35 H35       4.0098    -8.6586    -1.7617 H      1 <0>       0.1400
   36 H36       0.2340   -10.5631    -4.2617 H      1 <0>       0.1300
   37 H37      -0.1620   -10.0304    -2.5967 H      1 <0>       0.0800
   38 H38       0.4629    -5.7120    -3.5369 H      1 <0>       0.1500
@<TRIPOS>BOND
   1    1    2 1
   2    1   25 1
   3    1   26 1
   4    1   27 1
   5    2    3 2
   6    2    4 2
   7    2    5 1
   8    5    6 1
   9    6    7 2
  10    6    8 1
  11    8    9 1
  12    8   13 1
  13    8   10 1
  14   10   11 1
  15   10   28 1
  16   10   29 1
  17   11   12 1
  18   11   30 1
  19   11   31 1
  20   12   13 1
  21   12   32 1
  22   12   33 1
  23   13   14 am
  24   14   15 2
  25   14   16 1
  26   16   24 ar
  27   16   17 ar
  28   17   18 ar
  29   17   34 1
  30   18   19 ar
  31   18   35 1
  32   19   23 ar
  33   19   20 1
  34   20   21 1
  35   21   22 1
  36   21   36 1
  37   21   37 1
  38   22   23 1
  39   23   24 ar
  40   24   38 1
@<TRIPOS>MOLECULE
ZINC000071745546
45    48    1     0     0
SMALL
USER_CHARGES
@<TRIPOS>ATOM
1      C1     -1.2074   -1.0248    0.3054 C.3      1 ZINC000071745546   -0.1500
2      C2     -0.0083   -0.1131    0.0374 C.3      1 ZINC000071745546   -0.0600
3      C3      0.7003   -0.5692   -1.2120 C.ar     1 ZINC000071745546    0.3400
4      N4      1.6663   -1.4609   -1.1086 N.ar     1 ZINC000071745546   -0.5100
5      C5      2.3137   -1.8891   -2.1780 C.ar     1 ZINC000071745546    0.1800
6      C6      1.9590   -1.3807   -3.4327 C.ar     1 ZINC000071745546   -0.2500
7      C7      2.6534   -1.8288   -4.6584 C.2      1 ZINC000071745546    0.5800
8      O8      2.0133   -2.0935   -5.6573 O.2      1 ZINC000071745546   -0.5100
9      N9      3.9962   -1.9441   -4.6683 N.am     1 ZINC000071745546   -0.6100
10     C10     4.7255   -2.3040   -5.8961 C.3      1 ZINC000071745546    0.1100
11     C11     5.6208   -1.1232   -6.2705 C.3      1 ZINC000071745546   -0.0700
12     C12     6.3760   -0.6221   -5.0701 C.2      1 ZINC000071745546   -0.2300
13     C13     5.9995   -0.8780   -3.7918 C.2      1 ZINC000071745546    0.1600
14     C14     4.7915   -1.7100   -3.4581 C.3      1 ZINC000071745546    0.1500
15     N15     6.7153   -0.3811   -2.7759 N.2      1 ZINC000071745546   -0.5200
16     C16     7.7898    0.3486   -2.9742 C.2      1 ZINC000071745546    0.4500
17     C17     8.5383    0.8730   -1.8135 C.ar     1 ZINC000071745546   -0.1300
18     C18     8.1151    0.5937   -0.5082 C.ar     1 ZINC000071745546   -0.0100
19     C19     8.8517    1.1085    0.5442 C.ar     1 ZINC000071745546   -0.1700
20     C20     9.9715    1.8749    0.2760 C.ar     1 ZINC000071745546    0.1300
21     N21    10.3470    2.1220   -0.9646 N.ar     1 ZINC000071745546   -0.4800
22     C22     9.6829    1.6507   -1.9992 C.ar     1 ZINC000071745546    0.1400
23     N23     8.2235    0.6290   -4.2355 N.am     1 ZINC000071745546   -0.6300
24     C24     7.5363    0.1560   -5.2941 C.2      1 ZINC000071745546    0.5300
25     O25     7.9100    0.3951   -6.4304 O.2      1 ZINC000071745546   -0.5200
26     C26     0.9280   -0.4363   -3.4943 C.ar     1 ZINC000071745546    0.2100
27     N27     0.3309   -0.0680   -2.3744 N.ar     1 ZINC000071745546   -0.5100
28     H28    -1.8947   -0.9789   -0.5394 H        1 ZINC000071745546    0.0600
29     H29    -0.8619   -2.0501    0.4374 H        1 ZINC000071745546    0.0600
30     H30    -1.7198   -0.6949    1.2091 H        1 ZINC000071745546    0.0700
31     H31    -0.3538    0.9122   -0.0946 H        1 ZINC000071745546    0.0900
32     H32     0.6790   -0.1590    0.8822 H        1 ZINC000071745546    0.1000
33     H33     3.1040   -2.6193   -2.0853 H        1 ZINC000071745546    0.1800
34     H34     5.3369   -3.1883   -5.7164 H        1 ZINC000071745546    0.0800
35     H35     4.0180   -2.5008   -6.7015 H        1 ZINC000071745546    0.1100
36     H36     6.3309   -1.4398   -7.0344 H        1 ZINC000071745546    0.1000
37     H37     5.0037   -0.3173   -6.6679 H        1 ZINC000071745546    0.0900
38     H38     4.1853   -1.1884   -2.7175 H        1 ZINC000071745546    0.1100
39     H39     5.1127   -2.6693   -3.0522 H        1 ZINC000071745546    0.1100
40     H40     7.2364   -0.0075   -0.3274 H        1 ZINC000071745546    0.1600
41     H41     8.5552    0.9141    1.5643 H        1 ZINC000071745546    0.1500
42     H42    10.5478    2.2780    1.0956 H        1 ZINC000071745546    0.1700
43     H43    10.0214    1.8747   -3.0000 H        1 ZINC000071745546    0.1600
44     H44     9.0205    1.1652   -4.3703 H        1 ZINC000071745546    0.4200
45     H45     0.6226   -0.0183   -4.4422 H        1 ZINC000071745546    0.1800
@<TRIPOS>BOND
1     1     2     1
2     1     28    1
3     1     29    1
4     1     30    1
5     2     3     1
6     2     31    1
7     2     32    1
8     3     27    ar
9     3     4     ar
10    4     5     ar
11    5     6     ar
12    5     33    1
13    6     7     1
14    6     26    ar
15    7     8     2
16    7     9     am
17    9     14    1
18    9     10    1
19    10    11    1
20    10    34    1
21    10    35    1
22    11    12    1
23    11    36    1
24    11    37    1
25    12    24    1
26    12    13    2
27    13    14    1
28    13    15    1
29    14    38    1
30    14    39    1
31    15    16    2
32    16    17    1
33    16    23    1
34    17    22    ar
35    17    18    ar
36    18    19    ar
37    18    40    1
38    19    20    ar
39    19    41    1
40    20    21    ar
41    20    42    1
42    21    22    ar
43    22    43    1
44    23    24    am
45    23    44    1
46    24    25    2
47    26    27    ar
48    26    45    1
@<TRIPOS>SUBSTRUCTURE
1   ZINC000071745546 1     RESIDUE    1   A     ZIN   1

@<TRIPOS>MOLECULE
ZINC000071745546
44    47    1     0     0
SMALL
USER_CHARGES
@<TRIPOS>ATOM
1      C1      0.8948   -0.9996    0.9013 C.3      1 ZINC000071745546   -0.1400
2      C2      0.0406   -0.1122   -0.0063 C.3      1 ZINC000071745546   -0.0600
3      C3     -1.3837   -0.6042    0.0063 C.ar     1 ZINC000071745546    0.3300
4      N4     -1.7546   -1.5085   -0.8789 N.ar     1 ZINC000071745546   -0.5100
5      C5     -2.9933   -1.9681   -0.9035 C.ar     1 ZINC000071745546    0.1900
6      C6     -3.9152   -1.4794    0.0293 C.ar     1 ZINC000071745546   -0.2400
7      C7     -5.3122   -1.9627    0.0423 C.2      1 ZINC000071745546    0.5800
8      O8     -5.8505   -2.2373    1.0969 O.2      1 ZINC000071745546   -0.5300
9      N9     -5.9889   -2.0990   -1.1153 N.am     1 ZINC000071745546   -0.6000
10     C10    -7.4073   -2.4947   -1.1319 C.3      1 ZINC000071745546    0.1100
11     C11    -8.2085   -1.3357   -1.7241 C.3      1 ZINC000071745546   -0.0500
12     C12    -7.5591   -0.8226   -2.9801 C.2      1 ZINC000071745546   -0.3100
13     C13    -6.2578   -1.0470   -3.2922 C.2      1 ZINC000071745546    0.1500
14     C14    -5.3443   -1.8533   -2.4100 C.3      1 ZINC000071745546    0.1600
15     N15    -5.7484   -0.5411   -4.4218 N.2      1 ZINC000071745546   -0.6100
16     C16    -6.4754    0.1677   -5.2558 C.2      1 ZINC000071745546    0.3800
17     C17    -5.8576    0.7035   -6.4861 C.ar     1 ZINC000071745546   -0.0600
18     C18    -6.6106    1.4665   -7.3870 C.ar     1 ZINC000071745546   -0.0400
19     C19    -5.9842    1.9453   -8.5243 C.ar     1 ZINC000071745546   -0.1900
20     C20    -4.6474    1.6579   -8.7330 C.ar     1 ZINC000071745546    0.0900
21     N21    -3.9622    0.9361   -7.8665 N.ar     1 ZINC000071745546   -0.5000
22     C22    -4.5114    0.4626   -6.7676 C.ar     1 ZINC000071745546    0.1300
23     N23    -7.7912    0.4161   -5.0018 N.pl3    1 ZINC000071745546   -0.6500
24     C24    -8.3525   -0.0673   -3.8756 C.2      1 ZINC000071745546    0.4900
25     O25    -9.5291    0.1432   -3.6321 O.2      1 ZINC000071745546   -0.6100
26     C26    -3.4770   -0.5205    0.9496 C.ar     1 ZINC000071745546    0.2000
27     N27    -2.2182   -0.1206    0.9056 N.ar     1 ZINC000071745546   -0.5200
28     H28     1.9250   -0.6437    0.8922 H        1 ZINC000071745546    0.0700
29     H29     0.5057   -0.9599    1.9188 H        1 ZINC000071745546    0.0600
30     H30     0.8622   -2.0273    0.5397 H        1 ZINC000071745546    0.0600
31     H31     0.0732    0.9155    0.3553 H        1 ZINC000071745546    0.0900
32     H32     0.4297   -0.1519   -1.0237 H        1 ZINC000071745546    0.0900
33     H33    -3.2896   -2.7085   -1.6317 H        1 ZINC000071745546    0.1800
34     H34    -7.5351   -3.3847   -1.7480 H        1 ZINC000071745546    0.0700
35     H35    -7.7461   -2.6966   -0.1157 H        1 ZINC000071745546    0.0900
36     H36    -9.2168   -1.6786   -1.9562 H        1 ZINC000071745546    0.0800
37     H37    -8.2644   -0.5284   -0.9939 H        1 ZINC000071745546    0.0600
38     H38    -4.4132   -1.3076   -2.2570 H        1 ZINC000071745546    0.0900
39     H39    -5.1294   -2.8091   -2.8877 H        1 ZINC000071745546    0.0900
40     H40    -7.6534    1.6755   -7.1993 H        1 ZINC000071745546    0.1500
41     H41    -6.5335    2.5370   -9.2416 H        1 ZINC000071745546    0.1300
42     H42    -4.1564    2.0301   -9.6200 H        1 ZINC000071745546    0.1500
43     H43    -3.9178   -0.1244   -6.0824 H        1 ZINC000071745546    0.1700
44     H44    -4.1555   -0.1168    1.6865 H        1 ZINC000071745546    0.1800
@<TRIPOS>BOND
1     1     2     1
2     1     28    1
3     1     29    1
4     1     30    1
5     2     3     1
6     2     31    1
7     2     32    1
8     3     27    ar
9     3     4     ar
10    4     5     ar
11    5     6     ar
12    5     33    1
13    6     7     1
14    6     26    ar
15    7     8     2
16    7     9     am
17    9     14    1
18    9     10    1
19    10    11    1
20    10    34    1
21    10    35    1
22    11    12    1
23    11    36    1
24    11    37    1
25    12    24    1
26    12    13    2
27    13    14    1
28    13    15    1
29    14    38    1
30    14    39    1
31    15    16    2
32    16    17    1
33    16    23    1
34    17    22    ar
35    17    18    ar
36    18    19    ar
37    18    40    1
38    19    20    ar
39    19    41    1
40    20    21    ar
41    20    42    1
42    21    22    ar
43    22    43    1
44    23    24    1
45    24    25    2
46    26    27    ar
47    26    44    1
@<TRIPOS>SUBSTRUCTURE
1   ZINC000071745546 1     RESIDUE    1   A     ZIN   1
@<TRIPOS>MOLECULE
ZINC000072141591
53    55    1     0     0
SMALL
USER_CHARGES
@<TRIPOS>ATOM
1      C1     -0.0187    1.5258    0.0104 C.3      1 ZINC000072141591   -0.1500
2      C2      0.0021   -0.0041    0.0020 C.3      1 ZINC000072141591   -0.1100
3      C3      0.7182   -0.4975   -1.2568 C.3      1 ZINC000072141591   -0.0700
4      C4      0.7386   -2.0043   -1.2651 C.ar     1 ZINC000072141591    0.1900
5      C5      0.2398   -2.7039   -2.3459 C.ar     1 ZINC000072141591   -0.2500
6      C6      0.2807   -4.0995   -2.3083 C.ar     1 ZINC000072141591    0.3700
7      N7     -0.2069   -4.8467   -3.3681 N.3      1 ZINC000072141591   -0.4700
8      C8      0.4434   -4.4612   -4.6271 C.3      1 ZINC000072141591    0.0600
9      C9     -0.2341   -5.1877   -5.7934 C.3      1 ZINC000072141591   -0.1000
10     C10    -0.1562   -6.6900   -5.5656 C.3      1 ZINC000072141591   -0.0800
11     C11    -0.8545   -7.4509   -6.7121 C.3      1 ZINC000072141591   -0.0900
12     C12     0.2427   -7.5208   -7.7972 C.3      1 ZINC000072141591    0.0600
13     H13     0.0911   -6.7275   -8.5292 H        1 ZINC000072141591    0.0700
14     C14     0.2026   -8.8632   -8.4808 C.2      1 ZINC000072141591    0.4900
15     O15    -0.4931   -9.0234   -9.4692 O.co2    1 ZINC000072141591   -0.6900
16     O16     0.8659   -9.7890   -8.0456 O.co2    1 ZINC000072141591   -0.6800
17     N17     1.5371   -7.3381   -7.1227 N.am     1 ZINC000072141591   -0.5800
18     C18     2.7412   -7.3152   -7.7277 C.2      1 ZINC000072141591    0.5400
19     C19     2.8372   -7.4864   -9.2219 C.3      1 ZINC000072141591   -0.1700
20     O20     3.7476   -7.1568   -7.0696 O.2      1 ZINC000072141591   -0.5800
21     C21     1.2996   -7.1833   -5.6745 C.3      1 ZINC000072141591    0.1200
22     C22    -0.7565   -7.0758   -4.2219 C.3      1 ZINC000072141591   -0.1000
23     C23    -0.0610   -6.2849   -3.1092 C.3      1 ZINC000072141591    0.0700
24     N24     0.7955   -4.6994   -1.2391 N.ar     1 ZINC000072141591   -0.5600
25     C25     1.2605   -3.9916   -0.2296 C.ar     1 ZINC000072141591    0.3500
26     C26     1.8366   -4.7088    0.9641 C.3      1 ZINC000072141591   -0.0800
27     N27     1.2408   -2.6741   -0.2370 N.ar     1 ZINC000072141591   -0.5400
28     H28     1.0039    1.9031    0.0027 H        1 ZINC000072141591    0.0600
29     H29    -0.5459    1.8868   -0.8726 H        1 ZINC000072141591    0.0500
30     H30    -0.5289    1.8773    0.9072 H        1 ZINC000072141591    0.0600
31     H31     0.5293   -0.3651    0.8851 H        1 ZINC000072141591    0.0700
32     H32    -1.0205   -0.3814    0.0098 H        1 ZINC000072141591    0.0600
33     H33     0.1910   -0.1364   -2.1398 H        1 ZINC000072141591    0.0800
34     H34     1.7408   -0.1202   -1.2645 H        1 ZINC000072141591    0.0900
35     H35    -0.1720   -2.1850   -3.1989 H        1 ZINC000072141591    0.1400
36     H36     0.3531   -3.3841   -4.7680 H        1 ZINC000072141591    0.0800
37     H37     1.4976   -4.7361   -4.5907 H        1 ZINC000072141591    0.0500
38     H38    -1.2788   -4.8828   -5.8541 H        1 ZINC000072141591    0.0800
39     H39     0.2737   -4.9342   -6.7240 H        1 ZINC000072141591    0.0800
40     H40    -1.1439   -8.4516   -6.3911 H        1 ZINC000072141591    0.0800
41     H41    -1.7197   -6.8951   -7.0734 H        1 ZINC000072141591    0.0800
42     H42     1.8379   -7.6152   -9.6377 H        1 ZINC000072141591    0.0800
43     H43     3.3018   -6.6029   -9.6597 H        1 ZINC000072141591    0.0800
44     H44     3.4413   -8.3648   -9.4489 H        1 ZINC000072141591    0.0900
45     H45     1.9829   -6.4451   -5.2546 H        1 ZINC000072141591    0.0700
46     H46     1.4149   -8.1407   -5.1665 H        1 ZINC000072141591    0.0700
47     H47    -1.8220   -6.8458   -4.2201 H        1 ZINC000072141591    0.0800
48     H48    -0.6141   -8.1431   -4.0529 H        1 ZINC000072141591    0.0800
49     H49     0.9974   -6.5444   -3.0857 H        1 ZINC000072141591    0.0500
50     H50    -0.5168   -6.5296   -2.1498 H        1 ZINC000072141591    0.0900
51     H51     2.9046   -4.8660    0.8129 H        1 ZINC000072141591    0.0800
52     H52     1.6812   -4.1070    1.8595 H        1 ZINC000072141591    0.0800
53     H53     1.3408   -5.6722    1.0832 H        1 ZINC000072141591    0.0800
@<TRIPOS>BOND
1     1     2     1
2     1     28    1
3     1     29    1
4     1     30    1
5     2     3     1
6     2     31    1
7     2     32    1
8     3     4     1
9     3     33    1
10    3     34    1
11    4     27    ar
12    4     5     ar
13    5     6     ar
14    5     35    1
15    6     7     1
16    6     24    ar
17    7     23    1
18    7     8     1
19    8     9     1
20    8     36    1
21    8     37    1
22    9     10    1
23    9     38    1
24    9     39    1
25    10    21    1
26    10    11    1
27    10    22    1
28    11    12    1
29    11    40    1
30    11    41    1
31    12    13    1
32    12    14    1
33    12    17    1
34    14    15    ar
35    14    16    ar
36    17    18    am
37    17    21    1
38    18    19    1
39    18    20    2
40    19    42    1
41    19    43    1
42    19    44    1
43    21    45    1
44    21    46    1
45    22    23    1
46    22    47    1
47    22    48    1
48    23    49    1
49    23    50    1
50    24    25    ar
51    25    26    1
52    25    27    ar
53    26    51    1
54    26    52    1
55    26    53    1
@<TRIPOS>SUBSTRUCTURE
1   ZINC000072141591 1     RESIDUE    1   A     ZIN   1

@<TRIPOS>MOLECULE
ZINC000072141591
54    56    1     0     0
SMALL
USER_CHARGES
@<TRIPOS>ATOM
1      C1     -0.0187    1.5258    0.0104 C.3      1 ZINC000072141591   -0.1600
2      C2      0.0021   -0.0041    0.0020 C.3      1 ZINC000072141591   -0.1200
3      C3     -1.4333   -0.5336    0.0129 C.3      1 ZINC000072141591   -0.1000
4      C4     -1.4129   -2.0405    0.0046 C.ar     1 ZINC000072141591    0.2200
5      C5     -1.3052   -2.7313   -1.1861 C.ar     1 ZINC000072141591   -0.2100
6      C6     -1.2899   -4.1272   -1.1436 C.ar     1 ZINC000072141591    0.4300
7      N7     -1.1830   -4.8658   -2.3108 N.3      1 ZINC000072141591   -0.4500
8      C8      0.0100   -4.4756   -3.0731 C.3      1 ZINC000072141591    0.0500
9      C9      0.0057   -5.1920   -4.4273 C.3      1 ZINC000072141591   -0.1000
10     C10    -0.0421   -6.6959   -4.2024 C.3      1 ZINC000072141591   -0.0800
11     C11    -0.0744   -7.4468   -5.5501 C.3      1 ZINC000072141591   -0.0900
12     C12     1.4183   -7.5150   -5.9418 C.3      1 ZINC000072141591    0.0600
13     H13     1.6536   -6.7167   -6.6456 H        1 ZINC000072141591    0.0700
14     C14     1.7241   -8.8531   -6.5640 C.2      1 ZINC000072141591    0.4900
15     O15     1.6155   -9.0041   -7.7690 O.co2    1 ZINC000072141591   -0.6900
16     O16     2.0800   -9.7845   -5.8625 O.co2    1 ZINC000072141591   -0.6800
17     N17     2.2022   -7.3424   -4.7092 N.am     1 ZINC000072141591   -0.5900
18     C18     3.5476   -7.3213   -4.6310 C.2      1 ZINC000072141591    0.5400
19     C19     4.3775   -7.4839   -5.8783 C.3      1 ZINC000072141591   -0.1700
20     O20     4.0902   -7.1715   -3.5567 O.2      1 ZINC000072141591   -0.5800
21     C21     1.2726   -7.1952   -3.5726 C.3      1 ZINC000072141591    0.1200
22     C22    -1.2342   -7.0871   -3.3417 C.3      1 ZINC000072141591   -0.1000
23     C23    -1.1874   -6.3061   -2.0244 C.3      1 ZINC000072141591    0.0500
24     N24    -1.3791   -4.7359    0.0352 N.ar     1 ZINC000072141591   -0.5100
25     C25    -1.4805   -4.0363    1.1474 C.ar     1 ZINC000072141591    0.4200
26     C26    -1.5790   -4.7634    2.4637 C.3      1 ZINC000072141591   -0.1300
27     N27    -1.4925   -2.7188    1.1409 N.ar     1 ZINC000072141591   -0.5300
28     H28    -1.5682   -2.2378    1.9799 H        1 ZINC000072141591    0.4500
29     H29     1.0039    1.9031    0.0027 H        1 ZINC000072141591    0.0700
30     H30    -0.5459    1.8868   -0.8726 H        1 ZINC000072141591    0.0600
31     H31    -0.5289    1.8773    0.9072 H        1 ZINC000072141591    0.0600
32     H32     0.5123   -0.3556   -0.8948 H        1 ZINC000072141591    0.0800
33     H33     0.5293   -0.3651    0.8851 H        1 ZINC000072141591    0.0700
34     H34    -1.9435   -0.1821    0.9097 H        1 ZINC000072141591    0.1000
35     H35    -1.9605   -0.1726   -0.8702 H        1 ZINC000072141591    0.1200
36     H36    -1.2349   -2.2053   -2.1268 H        1 ZINC000072141591    0.1900
37     H37     0.0032   -3.3973   -3.2322 H        1 ZINC000072141591    0.1000
38     H38     0.9045   -4.7555   -2.5166 H        1 ZINC000072141591    0.0800
39     H39    -0.8685   -4.8819   -4.9999 H        1 ZINC000072141591    0.0900
40     H40     0.9109   -4.9352   -4.9775 H        1 ZINC000072141591    0.0900
41     H41    -0.4865   -8.4480   -5.4243 H        1 ZINC000072141591    0.0800
42     H42    -0.6425   -6.8848   -6.2914 H        1 ZINC000072141591    0.0800
43     H43     3.7199   -7.6056   -6.7390 H        1 ZINC000072141591    0.0800
44     H44     4.9996   -6.5999   -6.0185 H        1 ZINC000072141591    0.0800
45     H45     5.0134   -8.3637   -5.7795 H        1 ZINC000072141591    0.0900
46     H46     1.6551   -6.4627   -2.8618 H        1 ZINC000072141591    0.0600
47     H47     1.1176   -8.1562   -3.0822 H        1 ZINC000072141591    0.0700
48     H48    -2.1576   -6.8523   -3.8711 H        1 ZINC000072141591    0.0800
49     H49    -1.1964   -8.1561   -3.1322 H        1 ZINC000072141591    0.0900
50     H50    -0.2828   -6.5707   -1.4769 H        1 ZINC000072141591    0.0800
51     H51    -2.0621   -6.5546   -1.4233 H        1 ZINC000072141591    0.1000
52     H52    -0.5786   -4.9245    2.8655 H        1 ZINC000072141591    0.1200
53     H53    -2.1607   -4.1663    3.1659 H        1 ZINC000072141591    0.1100
54     H54    -2.0688   -5.7252    2.3118 H        1 ZINC000072141591    0.1300
@<TRIPOS>BOND
1     1     2     1
2     1     29    1
3     1     30    1
4     1     31    1
5     2     3     1
6     2     32    1
7     2     33    1
8     3     4     1
9     3     34    1
10    3     35    1
11    4     27    ar
12    4     5     ar
13    5     6     ar
14    5     36    1
15    6     7     1
16    6     24    ar
17    7     23    1
18    7     8     1
19    8     9     1
20    8     37    1
21    8     38    1
22    9     10    1
23    9     39    1
24    9     40    1
25    10    21    1
26    10    11    1
27    10    22    1
28    11    12    1
29    11    41    1
30    11    42    1
31    12    13    1
32    12    14    1
33    12    17    1
34    14    15    ar
35    14    16    ar
36    17    18    am
37    17    21    1
38    18    19    1
39    18    20    2
40    19    43    1
41    19    44    1
42    19    45    1
43    21    46    1
44    21    47    1
45    22    23    1
46    22    48    1
47    22    49    1
48    23    50    1
49    23    51    1
50    24    25    ar
51    25    26    1
52    25    27    ar
53    26    52    1
54    26    53    1
55    26    54    1
56    27    28    1
@<TRIPOS>SUBSTRUCTURE
1   ZINC000072141591 1     RESIDUE    1   A     ZIN   1
@<TRIPOS>MOLECULE
ZINC000072163952
43    46    1     0     0
SMALL
USER_CHARGES
@<TRIPOS>ATOM
1      C1      0.5316    1.3564   -0.4028 C.3      1 ZINC000072163952   -0.1600
2      C2     -0.0064   -0.0177    0.0014 C.3      1 ZINC000072163952    0.1400
3      H3     -1.0475    0.0761    0.3102 H        1 ZINC000072163952    0.1300
4      C4      0.8101   -0.5599    1.1462 C.2      1 ZINC000072163952    0.5200
5      O5      1.8325   -1.1736    0.9246 O.2      1 ZINC000072163952   -0.5100
6      N6      0.4042   -0.3629    2.4162 N.am     1 ZINC000072163952   -0.6100
7      C7      1.2276   -0.7918    3.5593 C.3      1 ZINC000072163952    0.1100
8      C8      1.6340    0.4594    4.3375 C.3      1 ZINC000072163952   -0.0700
9      C9      0.4490    1.3579    4.5630 C.2      1 ZINC000072163952   -0.2300
10     C10    -0.6877    1.2927    3.8249 C.2      1 ZINC000072163952    0.1600
11     C11    -0.8732    0.2929    2.7163 C.3      1 ZINC000072163952    0.1600
12     N12    -1.6928    2.1401    4.0760 N.2      1 ZINC000072163952   -0.5200
13     C13    -1.6213    3.0399    5.0308 C.2      1 ZINC000072163952    0.4500
14     C14    -2.7615    3.9510    5.2597 C.ar     1 ZINC000072163952   -0.1300
15     C15    -3.9161    3.8584    4.4728 C.ar     1 ZINC000072163952   -0.0100
16     C16    -4.9558    4.7350    4.7284 C.ar     1 ZINC000072163952   -0.1700
17     C17    -4.8230    5.6657    5.7430 C.ar     1 ZINC000072163952    0.1300
18     N18    -3.7230    5.7301    6.4689 N.ar     1 ZINC000072163952   -0.4800
19     C19    -2.7086    4.9151    6.2682 C.ar     1 ZINC000072163952    0.1400
20     N20    -0.5099    3.1451    5.8127 N.am     1 ZINC000072163952   -0.6300
21     C21     0.5328    2.3182    5.5988 C.2      1 ZINC000072163952    0.5300
22     O22     1.5352    2.3962    6.2895 O.2      1 ZINC000072163952   -0.5200
23     N23     0.0842   -0.9325   -1.1393 N.pl3    1 ZINC000072163952   -0.3700
24     C24     1.0506   -0.9626   -2.0732 C.2      1 ZINC000072163952    0.2800
25     N25     0.7695   -1.9215   -2.9177 N.2      1 ZINC000072163952   -0.5400
26     C26    -0.3635   -2.5231   -2.5574 C.2      1 ZINC000072163952    0.2100
27     N27    -0.8182   -1.9563   -1.4709 N.2      1 ZINC000072163952   -0.3200
28     H28     1.5957    1.2787   -0.6257 H        1 ZINC000072163952    0.0800
29     H29     0.0000    1.7090   -1.2866 H        1 ZINC000072163952    0.0900
30     H30     0.3823    2.0602    0.4160 H        1 ZINC000072163952    0.0900
31     H31     0.6494   -1.4551    4.2026 H        1 ZINC000072163952    0.0800
32     H32     2.1177   -1.3083    3.2000 H        1 ZINC000072163952    0.1100
33     H33     2.0480    0.1633    5.3014 H        1 ZINC000072163952    0.1000
34     H34     2.3929    1.0016    3.7735 H        1 ZINC000072163952    0.0900
35     H35    -1.2404    0.8030    1.8258 H        1 ZINC000072163952    0.1100
36     H36    -1.5967   -0.4614    3.0256 H        1 ZINC000072163952    0.1100
37     H37    -3.9929    3.1220    3.6865 H        1 ZINC000072163952    0.1600
38     H38    -5.8615    4.6932    4.1414 H        1 ZINC000072163952    0.1500
39     H39    -5.6330    6.3512    5.9441 H        1 ZINC000072163952    0.1700
40     H40    -1.8248    4.9987    6.8832 H        1 ZINC000072163952    0.1600
41     H41    -0.4694    3.8103    6.5176 H        1 ZINC000072163952    0.4200
42     H42     1.9090   -0.3088   -2.1188 H        1 ZINC000072163952    0.2200
43     H43    -0.8284   -3.3482   -3.0766 H        1 ZINC000072163952    0.2200
@<TRIPOS>BOND
1     1     2     1
2     1     28    1
3     1     29    1
4     1     30    1
5     2     3     1
6     2     4     1
7     2     23    1
8     4     5     2
9     4     6     am
10    6     11    1
11    6     7     1
12    7     8     1
13    7     31    1
14    7     32    1
15    8     9     1
16    8     33    1
17    8     34    1
18    9     21    1
19    9     10    2
20    10    11    1
21    10    12    1
22    11    35    1
23    11    36    1
24    12    13    2
25    13    14    1
26    13    20    1
27    14    19    ar
28    14    15    ar
29    15    16    ar
30    15    37    1
31    16    17    ar
32    16    38    1
33    17    18    ar
34    17    39    1
35    18    19    ar
36    19    40    1
37    20    21    am
38    20    41    1
39    21    22    2
40    23    27    1
41    23    24    1
42    24    25    2
43    24    42    1
44    25    26    1
45    26    27    2
46    26    43    1
@<TRIPOS>SUBSTRUCTURE
1   ZINC000072163952 1     RESIDUE    1   A     ZIN   1

@<TRIPOS>MOLECULE
ZINC000072163952
42    45    1     0     0
SMALL
USER_CHARGES
@<TRIPOS>ATOM
1      C1      0.0669    1.3440    0.6901 C.3      1 ZINC000072163952   -0.1600
2      C2      0.0070   -0.0175   -0.0053 C.3      1 ZINC000072163952    0.1400
3      H3      0.2585    0.1014   -1.0592 H        1 ZINC000072163952    0.1300
4      C4     -1.3840   -0.5840    0.1185 C.2      1 ZINC000072163952    0.5100
5      O5     -1.6935   -1.2224    1.1022 O.2      1 ZINC000072163952   -0.5300
6      N6     -2.2840   -0.3814   -0.8640 N.am     1 ZINC000072163952   -0.6000
7      C7     -3.6789   -0.8347   -0.7311 C.3      1 ZINC000072163952    0.1100
8      C8     -4.5754    0.4031   -0.7433 C.3      1 ZINC000072163952   -0.0500
9      C9     -4.1925    1.3303   -1.8641 C.2      1 ZINC000072163952   -0.3100
10     C10    -2.9842    1.2962   -2.4806 C.2      1 ZINC000072163952    0.1500
11     C11    -1.9159    0.3053   -2.1069 C.3      1 ZINC000072163952    0.1600
12     N12    -2.7126    2.1677   -3.4594 N.2      1 ZINC000072163952   -0.6100
13     C13    -3.5893    3.0621   -3.8568 C.2      1 ZINC000072163952    0.3800
14     C14    -3.2319    4.0007   -4.9403 C.ar     1 ZINC000072163952   -0.0600
15     C15    -4.1474    4.9663   -5.3767 C.ar     1 ZINC000072163952   -0.0400
16     C16    -3.7630    5.8216   -6.3944 C.ar     1 ZINC000072163952   -0.1900
17     C17    -2.4994    5.6968   -6.9428 C.ar     1 ZINC000072163952    0.0900
18     N18    -1.6571    4.7772   -6.5115 N.ar     1 ZINC000072163952   -0.5000
19     C19    -1.9736    3.9438   -5.5426 C.ar     1 ZINC000072163952    0.1300
20     N20    -4.8235    3.1367   -3.2834 N.pl3    1 ZINC000072163952   -0.6500
21     C21    -5.1464    2.2846   -2.2902 C.2      1 ZINC000072163952    0.4900
22     O22    -6.2467    2.3350   -1.7660 O.2      1 ZINC000072163952   -0.6100
23     N23     0.9639   -0.9303    0.6251 N.pl3    1 ZINC000072163952   -0.3600
24     C24     1.2903   -0.9813    1.9282 C.2      1 ZINC000072163952    0.2800
25     N25     2.1770   -1.9299    2.0878 N.2      1 ZINC000072163952   -0.5500
26     C26     2.4406   -2.5042    0.9147 C.2      1 ZINC000072163952    0.2000
27     N27     1.7181   -1.9299   -0.0108 N.2      1 ZINC000072163952   -0.3200
28     H28     1.0924    1.7130    0.6788 H        1 ZINC000072163952    0.0800
29     H29    -0.5786    2.0486    0.1655 H        1 ZINC000072163952    0.1000
30     H30    -0.2707    1.2405    1.7213 H        1 ZINC000072163952    0.0800
31     H31    -3.9367   -1.4855   -1.5666 H        1 ZINC000072163952    0.0700
32     H32    -3.8044   -1.3722    0.2088 H        1 ZINC000072163952    0.0900
33     H33    -5.6124    0.0934   -0.8726 H        1 ZINC000072163952    0.0800
34     H34    -4.4746    0.9281    0.2066 H        1 ZINC000072163952    0.0600
35     H35    -0.9690    0.8275   -1.9694 H        1 ZINC000072163952    0.0900
36     H36    -1.8104   -0.4317   -2.9030 H        1 ZINC000072163952    0.0900
37     H37    -5.1282    5.0413   -4.9308 H        1 ZINC000072163952    0.1500
38     H38    -4.4428    6.5784   -6.7570 H        1 ZINC000072163952    0.1300
39     H39    -2.1972    6.3629   -7.7374 H        1 ZINC000072163952    0.1500
40     H40    -1.2570    3.2044   -5.2169 H        1 ZINC000072163952    0.1700
41     H41     0.8906   -0.3491    2.7073 H        1 ZINC000072163952    0.2200
42     H42     3.1354   -3.3155    0.7552 H        1 ZINC000072163952    0.2200
@<TRIPOS>BOND
1     1     2     1
2     1     28    1
3     1     29    1
4     1     30    1
5     2     3     1
6     2     4     1
7     2     23    1
8     4     5     2
9     4     6     am
10    6     11    1
11    6     7     1
12    7     8     1
13    7     31    1
14    7     32    1
15    8     9     1
16    8     33    1
17    8     34    1
18    9     21    1
19    9     10    2
20    10    11    1
21    10    12    1
22    11    35    1
23    11    36    1
24    12    13    2
25    13    14    1
26    13    20    1
27    14    19    ar
28    14    15    ar
29    15    16    ar
30    15    37    1
31    16    17    ar
32    16    38    1
33    17    18    ar
34    17    39    1
35    18    19    ar
36    19    40    1
37    20    21    1
38    21    22    2
39    23    27    1
40    23    24    1
41    24    25    2
42    24    41    1
43    25    26    1
44    26    27    2
45    26    42    1
@<TRIPOS>SUBSTRUCTURE
1   ZINC000072163952 1     RESIDUE    1   A     ZIN   1
@<TRIPOS>MOLECULE
ZINC000072351249
  45   47    0    0    0
SMALL
USER_CHARGES
NO_NAME
@<TRIPOS>ATOM
    1 C1       -0.0184     1.5028     0.0103 C.3    1 <0>      -0.1100
    2 C2        0.0021    -0.0041     0.0020 C.2    1 <0>       0.1800
    3 C3        0.0058    -0.6795    -1.1807 C.2    1 <0>      -0.3000
    4 C4        0.0255    -2.0893    -1.1527 C.2    1 <0>       0.5200
    5 O5        0.0299    -2.7329    -2.1889 O.2    1 <0>      -0.5400
    6 N6        0.0400    -2.7115     0.0455 N.am   1 <0>      -0.6300
    7 C7        0.0354    -1.9848     1.1802 C.2    1 <0>       0.4100
    8 C8        0.0517    -2.6947     2.5094 C.3    1 <0>      -0.0600
    9 H9       -0.5252    -3.6166     2.4366 H      1 <0>       0.1100
   10 C10       1.4956    -3.0247     2.8946 C.3    1 <0>      -0.1100
   11 C11       1.5109    -3.7747     4.2285 C.3    1 <0>      -0.1300
   12 C12       0.9119    -2.8810     5.3191 C.3    1 <0>       0.1100
   13 N13      -0.4224    -2.4407     4.8896 N.am   1 <0>      -1.0100
   14 S14      -1.7418    -2.6743     5.8627 S.o2   1 <0>       2.7800
   15 O15      -2.8763    -2.6763     5.0070 O.2    1 <0>      -0.9700
   16 O16      -1.4174    -3.7555     6.7258 O.2    1 <0>      -0.9700
   17 N17      -1.8845    -1.3343     6.8252 N.am   1 <0>      -1.0100
   18 C18      -1.2084    -1.2636     8.1303 C.3    1 <0>       0.0900
   19 C19      -0.4302     0.0553     8.2009 C.3    1 <0>       0.0500
   20 O20      -1.3080     1.1374     7.8812 O.3    1 <0>      -0.3800
   21 C21      -1.8402     1.0872     6.5553 C.3    1 <0>       0.0500
   22 C22      -2.6860    -0.1766     6.3979 C.3    1 <0>       0.0900
   23 C23      -0.5646    -1.7890     3.5803 C.3    1 <0>       0.1400
   24 N24       0.0222    -0.6787     1.1541 N.2    1 <0>      -0.5300
   25 H25       1.0042     1.8801     0.0026 H      1 <0>       0.0900
   26 H26      -0.5455     1.8639    -0.8728 H      1 <0>       0.0800
   27 H27      -0.5286     1.8543     0.9071 H      1 <0>       0.0800
   28 H28      -0.0066    -0.1467    -2.1200 H      1 <0>       0.1600
   29 H29       0.0534    -3.6804     0.0894 H      1 <0>       0.4200
   30 H30       1.9439    -3.6492     2.1218 H      1 <0>       0.0700
   31 H31       2.0660    -2.1009     2.9908 H      1 <0>       0.0800
   32 H32       0.9201    -4.6864     4.1401 H      1 <0>       0.0700
   33 H33       2.5377    -4.0299     4.4907 H      1 <0>       0.0900
   34 H34       0.8292    -3.4443     6.2486 H      1 <0>       0.1000
   35 H35       1.5519    -2.0119     5.4717 H      1 <0>       0.0700
   36 H36      -1.9488    -1.2962     8.9296 H      1 <0>       0.0800
   37 H37      -0.5196    -2.1022     8.2328 H      1 <0>       0.1000
   38 H38      -0.0357     0.1918     9.2078 H      1 <0>       0.1100
   39 H39       0.3929     0.0310     7.4867 H      1 <0>       0.0600
   40 H40      -2.4601     1.9661     6.3783 H      1 <0>       0.1100
   41 H41      -1.0222     1.0667     5.8352 H      1 <0>       0.0600
   42 H42      -2.9780    -0.2953     5.3545 H      1 <0>       0.1000
   43 H43      -3.5762    -0.1027     7.0226 H      1 <0>       0.0800
   44 H44      -0.0450    -0.8309     3.5907 H      1 <0>       0.1000
   45 H45      -1.6211    -1.6318     3.3632 H      1 <0>       0.1000
@<TRIPOS>BOND
   1    1    2 1
   2    1   25 1
   3    1   26 1
   4    1   27 1
   5    2   24 1
   6    2    3 2
   7    3    4 1
   8    3   28 1
   9    4    5 2
  10    4    6 am
  11    6    7 1
  12    6   29 1
  13    7    8 1
  14    7   24 2
  15    8    9 1
  16    8   23 1
  17    8   10 1
  18   10   11 1
  19   10   30 1
  20   10   31 1
  21   11   12 1
  22   11   32 1
  23   11   33 1
  24   12   13 1
  25   12   34 1
  26   12   35 1
  27   13   14 am
  28   13   23 1
  29   14   15 2
  30   14   16 2
  31   14   17 am
  32   17   22 1
  33   17   18 1
  34   18   19 1
  35   18   36 1
  36   18   37 1
  37   19   20 1
  38   19   38 1
  39   19   39 1
  40   20   21 1
  41   21   22 1
  42   21   40 1
  43   21   41 1
  44   22   42 1
  45   22   43 1
  46   23   44 1
  47   23   45 1

@<TRIPOS>MOLECULE
ZINC000072351249
  44   46    0    0    0
SMALL
USER_CHARGES
NO_NAME
@<TRIPOS>ATOM
    1 C1       -0.0184     1.5028     0.0103 C.3    1 <0>      -0.0900
    2 C2        0.0021    -0.0041     0.0020 C.2    1 <0>       0.1600
    3 C3        0.0058    -0.6795    -1.1807 C.2    1 <0>      -0.3800
    4 C4        0.0255    -2.0893    -1.1527 C.2    1 <0>       0.4900
    5 O5        0.0299    -2.7329    -2.1889 O.2    1 <0>      -0.6300
    6 N6        0.0400    -2.7115     0.0455 N.pl3  1 <0>      -0.6600
    7 C7        0.0354    -1.9848     1.1802 C.2    1 <0>       0.3500
    8 C8        0.0517    -2.6947     2.5094 C.3    1 <0>      -0.0200
    9 H9        0.6534    -3.6002     2.4309 H      1 <0>       0.0800
   10 C10       0.6523    -1.7730     3.5734 C.3    1 <0>      -0.0900
   11 C11       0.6996    -2.5046     4.9167 C.3    1 <0>      -0.1300
   12 C12      -0.7249    -2.8722     5.3438 C.3    1 <0>       0.1200
   13 N13      -1.3604    -3.6370     4.2622 N.am   1 <0>      -1.0000
   14 S14      -2.0420    -5.1161     4.5624 S.o2   1 <0>       2.7800
   15 O15      -2.0550    -5.8109     3.3229 O.2    1 <0>      -0.9600
   16 O16      -1.4078    -5.6207     5.7296 O.2    1 <0>      -0.9800
   17 N17      -3.6259    -4.8529     4.9676 N.am   1 <0>      -1.0100
   18 C18      -4.0229    -4.6303     6.3669 C.3    1 <0>       0.0900
   19 C19      -4.8851    -3.3643     6.4294 C.3    1 <0>       0.0500
   20 O20      -5.9464    -3.4702     5.4776 O.3    1 <0>      -0.3800
   21 C21      -5.5082    -3.5581     4.1196 C.3    1 <0>       0.0500
   22 C22      -4.6771    -4.8284     3.9382 C.3    1 <0>       0.0900
   23 C23      -1.3801    -3.0651     2.9089 C.3    1 <0>       0.1400
   24 N24       0.0222    -0.6787     1.1541 N.2    1 <0>      -0.6200
   25 H25       1.0042     1.8801     0.0026 H      1 <0>       0.0600
   26 H26      -0.5455     1.8639    -0.8728 H      1 <0>       0.0600
   27 H27      -0.5286     1.8543     0.9071 H      1 <0>       0.0600
   28 H28      -0.0066    -0.1467    -2.1200 H      1 <0>       0.1000
   29 H29       1.6625    -1.4886     3.2791 H      1 <0>       0.0600
   30 H30       0.0366    -0.8786     3.6685 H      1 <0>       0.0800
   31 H31       1.2948    -3.4122     4.8160 H      1 <0>       0.0700
   32 H32       1.1489    -1.8559     5.6687 H      1 <0>       0.0700
   33 H33      -0.6900    -3.4790     6.2487 H      1 <0>       0.0900
   34 H34      -1.2958    -1.9631     5.5328 H      1 <0>       0.0700
   35 H35      -4.5978    -5.4841     6.7256 H      1 <0>       0.0800
   36 H36      -3.1342    -4.5001     6.9844 H      1 <0>       0.1000
   37 H37      -5.3031    -3.2576     7.4304 H      1 <0>       0.1000
   38 H38      -4.2717    -2.4942     6.1955 H      1 <0>       0.0600
   39 H39      -6.3744    -3.5907     3.4589 H      1 <0>       0.1100
   40 H40      -4.8970    -2.6887     3.8773 H      1 <0>       0.0600
   41 H41      -4.2229    -4.8315     2.9473 H      1 <0>       0.1000
   42 H42      -5.3157    -5.7043     4.0526 H      1 <0>       0.0800
   43 H43      -2.0042    -2.1716     2.8988 H      1 <0>       0.0700
   44 H44      -1.7776    -3.7990     2.2078 H      1 <0>       0.0900
@<TRIPOS>BOND
   1    1    2 1
   2    1   25 1
   3    1   26 1
   4    1   27 1
   5    2   24 1
   6    2    3 2
   7    3    4 1
   8    3   28 1
   9    4    5 2
  10    4    6 1
  11    6    7 1
  12    7    8 1
  13    7   24 2
  14    8    9 1
  15    8   23 1
  16    8   10 1
  17   10   11 1
  18   10   29 1
  19   10   30 1
  20   11   12 1
  21   11   31 1
  22   11   32 1
  23   12   13 1
  24   12   33 1
  25   12   34 1
  26   13   14 am
  27   13   23 1
  28   14   15 2
  29   14   16 2
  30   14   17 am
  31   17   22 1
  32   17   18 1
  33   18   19 1
  34   18   35 1
  35   18   36 1
  36   19   20 1
  37   19   37 1
  38   19   38 1
  39   20   21 1
  40   21   22 1
  41   21   39 1
  42   21   40 1
  43   22   41 1
  44   22   42 1
  45   23   43 1
  46   23   44 1
@<TRIPOS>MOLECULE
ZINC000019560762
  42   45    0    0    0
SMALL
USER_CHARGES
NO_NAME
@<TRIPOS>ATOM
    1 C1        0.1639     1.6817     0.1599 C.3    1 <0>      -0.0900
    2 C2        0.1414     0.1758     0.1075 C.2    1 <0>       0.1400
    3 C3        0.1322    -0.5184    -1.0528 C.2    1 <0>      -0.2300
    4 C4        0.1422     0.0581    -2.4114 C.ar   1 <0>       0.2600
    5 C5        0.1250    -0.7733    -3.5383 C.ar   1 <0>      -0.2300
    6 C6        0.1350    -0.1828    -4.7875 C.ar   1 <0>       0.1600
    7 N7        0.1602     1.1390    -4.8781 N.ar   1 <0>      -0.5300
    8 C8        0.1759     1.8958    -3.7986 C.ar   1 <0>       0.3100
    9 N9        0.1622     1.3804    -2.5875 N.ar   1 <0>      -0.5100
   10 S10       0.1060    -2.2343    -0.6530 S.3    1 <0>       0.1600
   11 C11       0.1099    -1.8557     1.0141 C.2    1 <0>       0.0700
   12 C12       0.0943    -2.8716     2.1271 C.3    1 <0>      -0.0100
   13 C13       1.3466    -2.7016     2.9902 C.3    1 <0>      -0.1200
   14 C14       1.3446    -3.7579     4.0997 C.3    1 <0>       0.1200
   15 N15       0.0812    -3.6601     4.8434 N.am   1 <0>      -0.6000
   16 C16       0.0827    -3.5173     6.1836 C.2    1 <0>       0.6100
   17 O17       1.1318    -3.5469     6.7969 O.2    1 <0>      -0.5100
   18 C18      -1.1920    -3.3246     6.9080 C.2    1 <0>       0.1600
   19 N19      -2.3973    -3.4065     6.3886 N.2    1 <0>      -0.2800
   20 N20      -3.2629    -3.1810     7.3159 N.pl3  1 <0>      -0.4000
   21 C21      -2.6051    -2.9467     8.4664 C.2    1 <0>       0.2100
   22 N22      -1.3239    -3.0403     8.2165 N.2    1 <0>      -0.4600
   23 C23      -1.1837    -3.7204     4.0984 C.3    1 <0>       0.0700
   24 C24      -1.1533    -2.6645     2.9890 C.3    1 <0>      -0.1200
   25 N25       0.1346    -0.5749     1.1844 N.2    1 <0>      -0.4700
   26 H26       1.1969     2.0296     0.1689 H      1 <0>       0.0800
   27 H27      -0.3472     2.0834    -0.7150 H      1 <0>       0.1000
   28 H28      -0.3417     2.0214     1.0639 H      1 <0>       0.0700
   29 H29       0.1049    -1.8480    -3.4336 H      1 <0>       0.1500
   30 H30       0.1227    -0.7914    -5.6796 H      1 <0>       0.1700
   31 H31       0.1964     2.9697    -3.9113 H      1 <0>       0.2000
   32 H32       0.0797    -3.8754     1.7025 H      1 <0>       0.1000
   33 H33       2.2349    -2.8261     2.3710 H      1 <0>       0.0800
   34 H34       1.3494    -1.7066     3.4353 H      1 <0>       0.0800
   35 H35       1.4332    -4.7509     3.6589 H      1 <0>       0.0800
   36 H36       2.1811    -3.5798     4.7754 H      1 <0>       0.1000
   37 H37      -4.2264    -3.1797     7.2036 H      1 <0>       0.4500
   38 H38      -3.0535    -2.7256     9.4237 H      1 <0>       0.2300
   39 H39      -1.3012    -4.7103     3.6576 H      1 <0>       0.0700
   40 H40      -2.0153    -3.5176     4.7733 H      1 <0>       0.1400
   41 H41      -1.1270    -1.6698     3.4340 H      1 <0>       0.0800
   42 H42      -2.0443    -2.7626     2.3688 H      1 <0>       0.0800
@<TRIPOS>BOND
   1    1    2 1
   2    1   26 1
   3    1   27 1
   4    1   28 1
   5    2   25 1
   6    2    3 2
   7    3    4 1
   8    3   10 1
   9    4    9 ar
  10    4    5 ar
  11    5    6 ar
  12    5   29 1
  13    6    7 ar
  14    6   30 1
  15    7    8 ar
  16    8    9 ar
  17    8   31 1
  18   10   11 1
  19   11   12 1
  20   11   25 2
  21   12   24 1
  22   12   13 1
  23   12   32 1
  24   13   14 1
  25   13   33 1
  26   13   34 1
  27   14   15 1
  28   14   35 1
  29   14   36 1
  30   15   16 am
  31   15   23 1
  32   16   17 2
  33   16   18 1
  34   18   22 1
  35   18   19 2
  36   19   20 1
  37   20   21 1
  38   20   37 1
  39   21   22 2
  40   21   38 1
  41   23   24 1
  42   23   39 1
  43   23   40 1
  44   24   41 1
  45   24   42 1
@<TRIPOS>MOLECULE
ZINC000072423950
  53   56    0    0    0
SMALL
USER_CHARGES
NO_NAME
@<TRIPOS>ATOM
    1 C1       -0.6717     1.4326    -0.0512 C.3    1 <0>       0.0900
    2 N2       -0.4173    -0.0100    -0.0310 N.pl3  1 <0>      -0.6100
    3 C3       -0.3843    -0.7301     1.2444 C.3    1 <0>       0.1000
    4 C4       -0.2078    -0.6936    -1.2187 C.ar   1 <0>       0.4600
    5 C5       -0.1280    -0.0049    -2.4249 C.ar   1 <0>      -0.3700
    6 C6        0.0839    -0.7372    -3.5892 C.ar   1 <0>       0.4700
    7 N7        0.1714    -0.0977    -4.8161 N.pl3  1 <0>      -0.5900
    8 C8        0.1595    -0.8723    -6.0645 C.3    1 <0>       0.1200
    9 C9        1.3982    -0.4977    -6.8871 C.3    1 <0>      -0.1200
   10 C10       1.4534     1.0125    -7.0599 C.3    1 <0>      -0.0700
   11 C11       2.6534     1.4137    -7.9442 C.3    1 <0>      -0.0900
   12 C12       2.1836     2.7405    -8.5804 C.3    1 <0>       0.0600
   13 H13       2.5944     3.5837    -8.0251 H      1 <0>       0.0700
   14 C14       2.6320     2.8066   -10.0177 C.2    1 <0>       0.4900
   15 O15       1.8125     2.7222   -10.9164 O.co2  1 <0>      -0.6700
   16 O16       3.8143     2.9445   -10.2817 O.co2  1 <0>      -0.7000
   17 N17       0.7147     2.7633    -8.5101 N.am   1 <0>      -0.5800
   18 C18      -0.0767     3.7638    -8.9452 C.2    1 <0>       0.5800
   19 O19      -1.2814     3.6750    -8.8366 O.2    1 <0>      -0.5700
   20 C20       0.5353     4.9928    -9.5666 C.3    1 <0>      -0.1700
   21 C21       0.3082     5.2154   -11.0632 C.3    1 <0>      -0.1100
   22 C22      -0.4163     6.0931   -10.0406 C.3    1 <0>      -0.1700
   23 C23       0.2504     1.5095    -7.8856 C.3    1 <0>       0.1200
   24 C24       1.5156     1.7277    -5.7189 C.3    1 <0>      -0.1100
   25 C25       0.2715     1.3663    -4.8897 C.3    1 <0>       0.1200
   26 N26       0.2018    -2.0611    -3.5075 N.ar   1 <0>      -0.6100
   27 C27       0.1203    -2.6768    -2.3455 C.ar   1 <0>       0.3700
   28 N28      -0.0743    -2.0189    -1.2210 N.ar   1 <0>      -0.6200
   29 H29       0.2744     1.9694     0.0187 H      1 <0>       0.0500
   30 H30      -1.1733     1.7001    -0.9813 H      1 <0>       0.0700
   31 H31      -1.3055     1.7017     0.7938 H      1 <0>       0.0700
   32 H32      -1.3853    -1.0878     1.4857 H      1 <0>       0.0500
   33 H33       0.2954    -1.5786     1.1651 H      1 <0>       0.0800
   34 H34      -0.0384    -0.0598     2.0313 H      1 <0>       0.0600
   35 H35      -0.2282     1.0699    -2.4569 H      1 <0>       0.1400
   36 H36       0.1819    -1.9375    -5.8342 H      1 <0>       0.1000
   37 H37      -0.7410    -0.6375    -6.6320 H      1 <0>       0.0600
   38 H38       2.2950    -0.8372    -6.3688 H      1 <0>       0.0700
   39 H39       1.3420    -0.9736    -7.8661 H      1 <0>       0.0800
   40 H40       3.5447     1.5713    -7.3368 H      1 <0>       0.0800
   41 H41       2.8360     0.6613    -8.7114 H      1 <0>       0.0800
   42 H42       1.4946     5.3014    -9.1514 H      1 <0>       0.1100
   43 H43       1.1184     5.6705   -11.6329 H      1 <0>       0.1000
   44 H44      -0.2838     4.4729   -11.5983 H      1 <0>       0.1000
   45 H45      -1.4849     5.9281    -9.9031 H      1 <0>       0.1000
   46 H46      -0.0827     7.1257    -9.9377 H      1 <0>       0.0900
   47 H47      -0.0125     0.7791    -8.6508 H      1 <0>       0.0600
   48 H48      -0.6026     1.7027    -7.2351 H      1 <0>       0.0700
   49 H49       2.4141     1.4196    -5.1841 H      1 <0>       0.0700
   50 H50       1.5413     2.8051    -5.8824 H      1 <0>       0.0800
   51 H51      -0.6183     1.7758    -5.3680 H      1 <0>       0.0700
   52 H52       0.3704     1.7758    -3.8844 H      1 <0>       0.0800
   53 H53       0.2199    -3.7517    -2.3136 H      1 <0>       0.1900
@<TRIPOS>BOND
   1    1    2 1
   2    1   29 1
   3    1   30 1
   4    1   31 1
   5    2    3 1
   6    2    4 1
   7    3   32 1
   8    3   33 1
   9    3   34 1
  10    4   28 ar
  11    4    5 ar
  12    5    6 ar
  13    5   35 1
  14    6    7 1
  15    6   26 ar
  16    7   25 1
  17    7    8 1
  18    8    9 1
  19    8   36 1
  20    8   37 1
  21    9   10 1
  22    9   38 1
  23    9   39 1
  24   10   23 1
  25   10   11 1
  26   10   24 1
  27   11   12 1
  28   11   40 1
  29   11   41 1
  30   12   13 1
  31   12   14 1
  32   12   17 1
  33   14   15 ar
  34   14   16 ar
  35   17   18 am
  36   17   23 1
  37   18   19 2
  38   18   20 1
  39   20   22 1
  40   20   21 1
  41   20   42 1
  42   21   22 1
  43   21   43 1
  44   21   44 1
  45   22   45 1
  46   22   46 1
  47   23   47 1
  48   23   48 1
  49   24   25 1
  50   24   49 1
  51   24   50 1
  52   25   51 1
  53   25   52 1
  54   26   27 ar
  55   27   28 ar
  56   27   53 1

@<TRIPOS>MOLECULE
ZINC000072423950
  54   57    0    0    0
SMALL
USER_CHARGES
NO_NAME
@<TRIPOS>ATOM
    1 C1       -3.2420    -5.0026     0.2009 C.3    1 <0>       0.0700
    2 N2       -2.0674    -4.1301     0.2737 N.pl3  1 <0>      -0.5600
    3 C3       -0.7376    -4.7080     0.4834 C.3    1 <0>       0.0800
    4 C4       -2.2143    -2.7577     0.1442 C.ar   1 <0>       0.4900
    5 C5       -3.4807    -2.1887     0.0544 C.ar   1 <0>      -0.3300
    6 C6       -3.5745    -0.8061    -0.0740 C.ar   1 <0>       0.4900
    7 N7       -4.8133    -0.1909    -0.1667 N.pl3  1 <0>      -0.5700
    8 C8       -4.9207     1.2744    -0.1745 C.3    1 <0>       0.1000
    9 C9       -5.8869     1.7023     0.9367 C.3    1 <0>      -0.1200
   10 C10      -7.2017     0.9535     0.7805 C.3    1 <0>      -0.0800
   11 C11      -8.2191     1.4162     1.8452 C.3    1 <0>      -0.0900
   12 C12      -9.5780     1.1575     1.1580 C.3    1 <0>       0.0600
   13 H13      -9.9898     0.2069     1.4971 H      1 <0>       0.0700
   14 C14     -10.5363     2.2749     1.4805 C.2    1 <0>       0.4900
   15 O15     -10.8686     3.0630     0.6115 O.co2  1 <0>      -0.6700
   16 O16     -10.9794     2.3910     2.6104 O.co2  1 <0>      -0.6900
   17 N17      -9.3327     1.1077    -0.2914 N.am   1 <0>      -0.5900
   18 C18     -10.2651     0.8825    -1.2382 C.2    1 <0>       0.5800
   19 O19      -9.9484     0.8637    -2.4088 O.2    1 <0>      -0.5700
   20 C20     -11.7011     0.6542    -0.8423 C.3    1 <0>      -0.1700
   21 C21     -12.7167     1.7371    -1.2125 C.3    1 <0>      -0.1100
   22 C22     -12.7118     0.4041    -1.9635 C.3    1 <0>      -0.1700
   23 C23      -7.8974     1.3461    -0.5378 C.3    1 <0>       0.1200
   24 C24      -7.0005    -0.5525     0.8530 C.3    1 <0>      -0.1200
   25 C25      -6.0402    -0.9933    -0.2648 C.3    1 <0>       0.1100
   26 N26      -2.4569    -0.0828    -0.1061 N.ar   1 <0>      -0.5800
   27 H27      -2.5133     0.8815    -0.1950 H      1 <0>       0.4400
   28 C28      -1.2755    -0.6594    -0.0182 C.ar   1 <0>       0.4300
   29 N29      -1.1451    -1.9640     0.1094 N.ar   1 <0>      -0.5400
   30 H30      -2.9320    -6.0404     0.3232 H      1 <0>       0.1000
   31 H31      -3.9418    -4.7367     0.9931 H      1 <0>       0.0800
   32 H32      -3.7263    -4.8799    -0.7679 H      1 <0>       0.0800
   33 H33      -0.2834    -4.9340    -0.4813 H      1 <0>       0.0700
   34 H34      -0.1125    -3.9953     1.0214 H      1 <0>       0.0900
   35 H35      -0.8276    -5.6247     1.0663 H      1 <0>       0.0900
   36 H36      -4.3679    -2.8040     0.0832 H      1 <0>       0.1800
   37 H37      -3.9395     1.7139     0.0048 H      1 <0>       0.0800
   38 H38      -5.3025     1.6079    -1.1395 H      1 <0>       0.1000
   39 H39      -5.4496     1.4701     1.9078 H      1 <0>       0.0800
   40 H40      -6.0689     2.7747     0.8671 H      1 <0>       0.1000
   41 H41      -8.1260     0.8199     2.7528 H      1 <0>       0.0800
   42 H42      -8.0932     2.4766     2.0642 H      1 <0>       0.0800
   43 H43     -11.8509     0.1235     0.0979 H      1 <0>       0.1100
   44 H44     -13.5348     1.9191    -0.5156 H      1 <0>       0.1000
   45 H45     -12.3461     2.6146    -1.7423 H      1 <0>       0.1000
   46 H46     -12.3380     0.4047    -2.9874 H      1 <0>       0.1000
   47 H47     -13.5267    -0.2909    -1.7607 H      1 <0>       0.1000
   48 H48      -7.7204     2.3980    -0.7618 H      1 <0>       0.0700
   49 H49      -7.5433     0.7182    -1.3554 H      1 <0>       0.0700
   50 H50      -6.5789    -0.8165     1.8230 H      1 <0>       0.0800
   51 H51      -7.9598    -1.0539     0.7250 H      1 <0>       0.1000
   52 H52      -6.5111    -0.8348    -1.2349 H      1 <0>       0.1000
   53 H53      -5.7963    -2.0486    -0.1422 H      1 <0>       0.1000
   54 H54      -0.3883    -0.0443    -0.0477 H      1 <0>       0.2400
@<TRIPOS>BOND
   1    1    2 1
   2    1   30 1
   3    1   31 1
   4    1   32 1
   5    2    3 1
   6    2    4 1
   7    3   33 1
   8    3   34 1
   9    3   35 1
  10    4   29 ar
  11    4    5 ar
  12    5    6 ar
  13    5   36 1
  14    6    7 1
  15    6   26 ar
  16    7   25 1
  17    7    8 1
  18    8    9 1
  19    8   37 1
  20    8   38 1
  21    9   10 1
  22    9   39 1
  23    9   40 1
  24   10   23 1
  25   10   11 1
  26   10   24 1
  27   11   12 1
  28   11   41 1
  29   11   42 1
  30   12   13 1
  31   12   14 1
  32   12   17 1
  33   14   15 ar
  34   14   16 ar
  35   17   18 am
  36   17   23 1
  37   18   19 2
  38   18   20 1
  39   20   22 1
  40   20   21 1
  41   20   43 1
  42   21   22 1
  43   21   44 1
  44   21   45 1
  45   22   46 1
  46   22   47 1
  47   23   48 1
  48   23   49 1
  49   24   25 1
  50   24   50 1
  51   24   51 1
  52   25   52 1
  53   25   53 1
  54   26   27 1
  55   26   28 ar
  56   28   29 ar
  57   28   54 1

@<TRIPOS>MOLECULE
ZINC000072423950
  54   57    0    0    0
SMALL
USER_CHARGES
NO_NAME
@<TRIPOS>ATOM
    1 C1       -0.0565     1.4623    -0.3962 C.3    1 <0>       0.0600
    2 N2       -0.0390    -0.0024    -0.4167 N.pl3  1 <0>      -0.5900
    3 C3        1.2151    -0.7166    -0.6683 C.3    1 <0>       0.0800
    4 C4       -1.2093    -0.7127    -0.1979 C.ar   1 <0>       0.4800
    5 C5       -1.2032    -2.1039    -0.2093 C.ar   1 <0>      -0.3300
    6 C6       -2.4041    -2.7702     0.0162 C.ar   1 <0>       0.4900
    7 N7       -2.4506    -4.1557     0.0154 N.pl3  1 <0>      -0.5300
    8 C8       -3.7402    -4.8596     0.0181 C.3    1 <0>       0.1000
    9 C9       -3.7629    -5.8391     1.1977 C.3    1 <0>      -0.1200
   10 C10      -2.5343    -6.7338     1.1365 C.3    1 <0>      -0.0800
   11 C11      -2.5663    -7.7774     2.2735 C.3    1 <0>      -0.0900
   12 C12      -1.7505    -8.9506     1.6869 C.3    1 <0>       0.0600
   13 H13      -0.7249    -8.9086     2.0534 H      1 <0>       0.0700
   14 C14      -2.3818   -10.2611     2.0806 C.2    1 <0>       0.4900
   15 O15      -2.9375   -10.9471     1.2396 O.co2  1 <0>      -0.6700
   16 O16      -2.3370   -10.6354     3.2401 O.co2  1 <0>      -0.6900
   17 N17      -1.7650    -8.8047     0.2234 N.am   1 <0>      -0.5900
   18 C18      -1.1483    -9.6219    -0.6532 C.2    1 <0>       0.5800
   19 O19      -1.2284    -9.4053    -1.8438 O.2    1 <0>      -0.5700
   20 C20      -0.3593   -10.8048    -0.1539 C.3    1 <0>      -0.1700
   21 C21      -0.9158   -12.1996    -0.4469 C.3    1 <0>      -0.1100
   22 C22       0.3173   -11.6944    -1.1987 C.3    1 <0>      -0.1700
   23 C23      -2.5671    -7.6166    -0.1267 C.3    1 <0>       0.1200
   24 C24      -1.2482    -5.9235     1.1914 C.3    1 <0>      -0.1200
   25 C25      -1.2110    -4.9445     0.0057 C.3    1 <0>       0.1000
   26 N26      -3.5078    -2.0573     0.2332 N.ar   1 <0>      -0.5400
   27 C27      -3.4724    -0.7402     0.2361 C.ar   1 <0>       0.4300
   28 N28      -2.3549    -0.0732     0.0319 N.ar   1 <0>      -0.5800
   29 H29      -2.3680     0.8966     0.0414 H      1 <0>       0.4400
   30 H30       0.9480     1.8403    -0.5867 H      1 <0>       0.1100
   31 H31      -0.7347     1.8284    -1.1670 H      1 <0>       0.0800
   32 H32      -0.3957     1.8081     0.5803 H      1 <0>       0.0800
   33 H33       1.7219    -0.9055     0.2780 H      1 <0>       0.0800
   34 H34       1.0006    -1.6649    -1.1612 H      1 <0>       0.0900
   35 H35       1.8559    -0.1109    -1.3091 H      1 <0>       0.1000
   36 H36      -0.2904    -2.6525    -0.3888 H      1 <0>       0.1800
   37 H37      -4.5503    -4.1384     0.1260 H      1 <0>       0.1100
   38 H38      -3.8588    -5.4091    -0.9158 H      1 <0>       0.0900
   39 H39      -3.7596    -5.2808     2.1338 H      1 <0>       0.0800
   40 H40      -4.6623    -6.4526     1.1435 H      1 <0>       0.0900
   41 H41      -2.0877    -7.3852     3.1709 H      1 <0>       0.0800
   42 H42      -3.5900    -8.0868     2.4847 H      1 <0>       0.0800
   43 H43       0.1588   -10.6581     0.7938 H      1 <0>       0.1100
   44 H44      -0.7639   -12.9709     0.3082 H      1 <0>       0.1000
   45 H45      -1.8525   -12.2616    -1.0007 H      1 <0>       0.1000
   46 H46       0.1918   -11.4241    -2.2472 H      1 <0>       0.1000
   47 H47       1.2804   -12.1334    -0.9382 H      1 <0>       0.0900
   48 H48      -3.5915    -7.9059    -0.3611 H      1 <0>       0.0700
   49 H49      -2.1182    -7.0904    -0.9692 H      1 <0>       0.0700
   50 H50      -1.2094    -5.3664     2.1275 H      1 <0>       0.0800
   51 H51      -0.3923    -6.5959     1.1329 H      1 <0>       0.0900
   52 H52      -1.1334    -5.5029    -0.9272 H      1 <0>       0.1000
   53 H53      -0.3544    -4.2784     0.1082 H      1 <0>       0.0900
   54 H54      -4.3853    -0.1916     0.4150 H      1 <0>       0.2400
@<TRIPOS>BOND
   1    1    2 1
   2    1   30 1
   3    1   31 1
   4    1   32 1
   5    2    3 1
   6    2    4 1
   7    3   33 1
   8    3   34 1
   9    3   35 1
  10    4   28 ar
  11    4    5 ar
  12    5    6 ar
  13    5   36 1
  14    6    7 1
  15    6   26 ar
  16    7   25 1
  17    7    8 1
  18    8    9 1
  19    8   37 1
  20    8   38 1
  21    9   10 1
  22    9   39 1
  23    9   40 1
  24   10   23 1
  25   10   11 1
  26   10   24 1
  27   11   12 1
  28   11   41 1
  29   11   42 1
  30   12   13 1
  31   12   14 1
  32   12   17 1
  33   14   15 ar
  34   14   16 ar
  35   17   18 am
  36   17   23 1
  37   18   19 2
  38   18   20 1
  39   20   22 1
  40   20   21 1
  41   20   43 1
  42   21   22 1
  43   21   44 1
  44   21   45 1
  45   22   46 1
  46   22   47 1
  47   23   48 1
  48   23   49 1
  49   24   25 1
  50   24   50 1
  51   24   51 1
  52   25   52 1
  53   25   53 1
  54   26   27 ar
  55   27   28 ar
  56   27   54 1
  57   28   29 1
@<TRIPOS>MOLECULE
ZINC000072427990
57    60    1     0     0
SMALL
USER_CHARGES
@<TRIPOS>ATOM
1      C1     -0.0184    1.5028    0.0103 C.3      1 ZINC000072427990   -0.0900
2      C2      0.0021   -0.0041    0.0020 C.2      1 ZINC000072427990    0.1000
3      N3      0.0081   -0.7654   -1.0620 N.2      1 ZINC000072427990   -0.2800
4      N4      0.0285   -2.1021   -0.6436 N.pl3    1 ZINC000072427990   -0.3600
5      C5      0.0411   -3.2784   -1.5168 C.3      1 ZINC000072427990    0.0900
6      C6      0.0344   -2.1150    0.7058 C.2      1 ZINC000072427990    0.1300
7      C7      0.0552   -3.3404    1.5826 C.3      1 ZINC000072427990   -0.1100
8      C8      0.0240   -0.8302    1.1305 C.2      1 ZINC000072427990   -0.3200
9      C9      0.0266   -0.3708    2.5657 C.3      1 ZINC000072427990    0.0900
10     N10     1.4124   -0.2080    3.0252 N.4      1 ZINC000072427990   -0.3800
11     H11     1.9178   -1.0685    2.8766 H        1 ZINC000072427990    0.4200
12     C12     2.0542    0.8717    2.2652 C.3      1 ZINC000072427990   -0.0100
13     C13     3.5271    0.9786    2.6730 C.3      1 ZINC000072427990   -0.1300
14     C14     3.6176    1.2447    4.1684 C.3      1 ZINC000072427990   -0.0900
15     C15     5.0915    1.3121    4.6204 C.3      1 ZINC000072427990   -0.0900
16     C16     5.4828    2.7718    4.3004 C.3      1 ZINC000072427990    0.0600
17     H17     6.0060    2.8143    3.3451 H        1 ZINC000072427990    0.0700
18     C18     6.3663    3.3168    5.3929 C.2      1 ZINC000072427990    0.4900
19     O19     7.5769    3.1947    5.3157 O.co2    1 ZINC000072427990   -0.6900
20     O20     5.8704    3.8797    6.3540 O.co2    1 ZINC000072427990   -0.6700
21     N21     4.2381    3.5519    4.2240 N.am     1 ZINC000072427990   -0.5900
22     C22     4.1521    4.8674    3.9438 C.2      1 ZINC000072427990    0.5800
23     O23     3.0679    5.4098    3.9066 O.2      1 ZINC000072427990   -0.5600
24     C24     5.4029    5.6643    3.6766 C.3      1 ZINC000072427990   -0.1800
25     C25     5.6237    6.1760    2.2518 C.3      1 ZINC000072427990   -0.1600
26     C26     5.2388    7.1531    3.3645 C.3      1 ZINC000072427990   -0.1500
27     C27     3.0990    2.6563    4.5039 C.3      1 ZINC000072427990    0.1200
28     C28     2.8611    0.1894    4.9613 C.3      1 ZINC000072427990   -0.1300
29     C29     1.4160    0.1183    4.4566 C.3      1 ZINC000072427990   -0.0100
30     H30     1.0042    1.8801    0.0026 H        1 ZINC000072427990    0.0900
31     H31    -0.5455    1.8639   -0.8728 H        1 ZINC000072427990    0.0900
32     H32    -0.5286    1.8543    0.9071 H        1 ZINC000072427990    0.0800
33     H33     1.0717   -3.5556   -1.7381 H        1 ZINC000072427990    0.0900
34     H34    -0.4588   -4.1078   -1.0163 H        1 ZINC000072427990    0.0900
35     H35    -0.4804   -3.0471   -2.4456 H        1 ZINC000072427990    0.1000
36     H36     1.0877   -3.6219    1.7892 H        1 ZINC000072427990    0.0900
37     H37    -0.4573   -3.1251    2.5202 H        1 ZINC000072427990    0.0900
38     H38    -0.4499   -4.1607    1.0725 H        1 ZINC000072427990    0.0900
39     H39    -0.4961    0.5825    2.6430 H        1 ZINC000072427990    0.1300
40     H40    -0.4769   -1.1126    3.1856 H        1 ZINC000072427990    0.1300
41     H41     1.9873    0.6549    1.1990 H        1 ZINC000072427990    0.1300
42     H42     1.5495    1.8144    2.4765 H        1 ZINC000072427990    0.1300
43     H43     4.0382    0.0449    2.4381 H        1 ZINC000072427990    0.0900
44     H44     3.9967    1.7978    2.1286 H        1 ZINC000072427990    0.1100
45     H45     5.1769    1.1151    5.6891 H        1 ZINC000072427990    0.0900
46     H46     5.7030    0.6144    4.0482 H        1 ZINC000072427990    0.0800
47     H47     6.2826    5.3633    4.2456 H        1 ZINC000072427990    0.1300
48     H48     6.6488    6.2117    1.8830 H        1 ZINC000072427990    0.1000
49     H49     4.8642    5.9363    1.5076 H        1 ZINC000072427990    0.0900
50     H50     4.2262    7.5562    3.3524 H        1 ZINC000072427990    0.1000
51     H51     6.0108    7.8315    3.7278 H        1 ZINC000072427990    0.1000
52     H52     2.2511    2.9103    3.8677 H        1 ZINC000072427990    0.0700
53     H53     2.8175    2.7173    5.5551 H        1 ZINC000072427990    0.0700
54     H54     3.3423   -0.7796    4.8290 H        1 ZINC000072427990    0.0900
55     H55     2.8645    0.4566    6.0181 H        1 ZINC000072427990    0.1200
56     H56     0.9287    1.0806    4.6134 H        1 ZINC000072427990    0.1300
57     H57     0.8776   -0.6550    5.0046 H        1 ZINC000072427990    0.1300
@<TRIPOS>BOND
1     1     2     1
2     1     30    1
3     1     31    1
4     1     32    1
5     2     8     1
6     2     3     2
7     3     4     1
8     4     5     1
9     4     6     1
10    5     33    1
11    5     34    1
12    5     35    1
13    6     7     1
14    6     8     2
15    7     36    1
16    7     37    1
17    7     38    1
18    8     9     1
19    9     10    1
20    9     39    1
21    9     40    1
22    10    11    1
23    10    29    1
24    10    12    1
25    12    13    1
26    12    41    1
27    12    42    1
28    13    14    1
29    13    43    1
30    13    44    1
31    14    27    1
32    14    15    1
33    14    28    1
34    15    16    1
35    15    45    1
36    15    46    1
37    16    17    1
38    16    18    1
39    16    21    1
40    18    19    ar
41    18    20    ar
42    21    22    am
43    21    27    1
44    22    23    2
45    22    24    1
46    24    26    1
47    24    25    1
48    24    47    1
49    25    26    1
50    25    48    1
51    25    49    1
52    26    50    1
53    26    51    1
54    27    52    1
55    27    53    1
56    28    29    1
57    28    54    1
58    28    55    1
59    29    56    1
60    29    57    1
@<TRIPOS>SUBSTRUCTURE
1   ZINC000072427990 1     RESIDUE    1   A     ZIN   1

@<TRIPOS>MOLECULE
ZINC000072427990
56    59    1     0     0
SMALL
USER_CHARGES
@<TRIPOS>ATOM
1      C1     -0.0184    1.5028    0.0103 C.3      1 ZINC000072427990   -0.0800
2      C2      0.0021   -0.0041    0.0020 C.2      1 ZINC000072427990    0.0800
3      N3      0.0081   -0.7654   -1.0620 N.2      1 ZINC000072427990   -0.3000
4      N4      0.0285   -2.1021   -0.6436 N.pl3    1 ZINC000072427990   -0.3800
5      C5      0.0411   -3.2784   -1.5168 C.3      1 ZINC000072427990    0.1000
6      C6      0.0344   -2.1150    0.7058 C.2      1 ZINC000072427990    0.1000
7      C7      0.0552   -3.3404    1.5826 C.3      1 ZINC000072427990   -0.0900
8      C8      0.0240   -0.8302    1.1305 C.2      1 ZINC000072427990   -0.2300
9      C9      0.0266   -0.3708    2.5657 C.3      1 ZINC000072427990    0.1300
10     N10     1.4124   -0.2080    3.0252 N.3      1 ZINC000072427990   -0.5300
11     C11     2.0834    0.8782    2.2995 C.3      1 ZINC000072427990    0.0600
12     C12     3.5655    0.9094    2.6862 C.3      1 ZINC000072427990   -0.1000
13     C13     3.6904    1.0877    4.1920 C.3      1 ZINC000072427990   -0.0700
14     C14     5.1736    1.0966    4.6175 C.3      1 ZINC000072427990   -0.1000
15     C15     5.5935    2.5626    4.3713 C.3      1 ZINC000072427990    0.0600
16     H16     6.0993    2.6467    3.4094 H        1 ZINC000072427990    0.0700
17     C17     6.5104    3.0251    5.4742 C.2      1 ZINC000072427990    0.4900
18     O18     7.7161    2.8800    5.3657 O.co2    1 ZINC000072427990   -0.6900
19     O19     6.0465    3.5445    6.4750 O.co2    1 ZINC000072427990   -0.6800
20     N20     4.3664    3.3737    4.3638 N.am     1 ZINC000072427990   -0.5800
21     C21     4.3062    4.7044    4.1590 C.2      1 ZINC000072427990    0.5700
22     O22     3.2347    5.2724    4.1742 O.2      1 ZINC000072427990   -0.5700
23     C23     5.5703    5.4866    3.9112 C.3      1 ZINC000072427990   -0.1800
24     C24     5.7758    6.0724    2.5128 C.3      1 ZINC000072427990   -0.1600
25     C25     5.4356    6.9939    3.6858 C.3      1 ZINC000072427990   -0.1500
26     C26     3.2121    2.4897    4.6166 C.3      1 ZINC000072427990    0.1200
27     C27     2.9239    0.0076    4.9406 C.3      1 ZINC000072427990   -0.1000
28     C28     1.4636    0.0073    4.4770 C.3      1 ZINC000072427990    0.0600
29     H29     1.0042    1.8801    0.0026 H        1 ZINC000072427990    0.0800
30     H30    -0.5455    1.8639   -0.8728 H        1 ZINC000072427990    0.0700
31     H31    -0.5286    1.8543    0.9071 H        1 ZINC000072427990    0.0800
32     H32     1.0717   -3.5556   -1.7381 H        1 ZINC000072427990    0.0700
33     H33    -0.4588   -4.1078   -1.0163 H        1 ZINC000072427990    0.0800
34     H34    -0.4804   -3.0471   -2.4456 H        1 ZINC000072427990    0.0900
35     H35     1.0877   -3.6219    1.7892 H        1 ZINC000072427990    0.0800
36     H36    -0.4573   -3.1251    2.5202 H        1 ZINC000072427990    0.0800
37     H37    -0.4499   -4.1607    1.0725 H        1 ZINC000072427990    0.0600
38     H38    -0.4961    0.5825    2.6430 H        1 ZINC000072427990    0.0400
39     H39    -0.4769   -1.1126    3.1856 H        1 ZINC000072427990    0.0800
40     H40     1.9911    0.7098    1.2265 H        1 ZINC000072427990    0.0800
41     H41     1.6197    1.8298    2.5595 H        1 ZINC000072427990    0.0300
42     H42     4.0383   -0.0272    2.3905 H        1 ZINC000072427990    0.0700
43     H43     4.0561    1.7405    2.1796 H        1 ZINC000072427990    0.0700
44     H44     5.2742    0.8382    5.6716 H        1 ZINC000072427990    0.0700
45     H45     5.7576    0.4182    3.9954 H        1 ZINC000072427990    0.0800
46     H46     6.4532    5.1344    4.4445 H        1 ZINC000072427990    0.1300
47     H47     6.7943    6.1055    2.1258 H        1 ZINC000072427990    0.1000
48     H48     4.9968    5.8920    1.7721 H        1 ZINC000072427990    0.0900
49     H49     4.4327    7.4198    3.7167 H        1 ZINC000072427990    0.1000
50     H50     6.2301    7.6333    4.0704 H        1 ZINC000072427990    0.1000
51     H51     2.3584    2.7984    4.0132 H        1 ZINC000072427990    0.0700
52     H52     2.9526    2.4977    5.6752 H        1 ZINC000072427990    0.0600
53     H53     3.3711   -0.9649    4.7344 H        1 ZINC000072427990    0.0700
54     H54     2.9655    0.2078    6.0112 H        1 ZINC000072427990    0.0700
55     H55     1.0053    0.9663    4.7187 H        1 ZINC000072427990    0.0300
56     H56     0.9220   -0.7923    4.9824 H        1 ZINC000072427990    0.0700
@<TRIPOS>BOND
1     1     2     1
2     1     29    1
3     1     30    1
4     1     31    1
5     2     8     1
6     2     3     2
7     3     4     1
8     4     5     1
9     4     6     1
10    5     32    1
11    5     33    1
12    5     34    1
13    6     7     1
14    6     8     2
15    7     35    1
16    7     36    1
17    7     37    1
18    8     9     1
19    9     10    1
20    9     38    1
21    9     39    1
22    10    28    1
23    10    11    1
24    11    12    1
25    11    40    1
26    11    41    1
27    12    13    1
28    12    42    1
29    12    43    1
30    13    26    1
31    13    14    1
32    13    27    1
33    14    15    1
34    14    44    1
35    14    45    1
36    15    16    1
37    15    17    1
38    15    20    1
39    17    18    ar
40    17    19    ar
41    20    21    am
42    20    26    1
43    21    22    2
44    21    23    1
45    23    25    1
46    23    24    1
47    23    46    1
48    24    25    1
49    24    47    1
50    24    48    1
51    25    49    1
52    25    50    1
53    26    51    1
54    26    52    1
55    27    28    1
56    27    53    1
57    27    54    1
58    28    55    1
59    28    56    1
@<TRIPOS>SUBSTRUCTURE
1   ZINC000072427990 1     RESIDUE    1   A     ZIN   1
@<TRIPOS>MOLECULE
ZINC000072438715
52    54    1     0     0
SMALL
USER_CHARGES
@<TRIPOS>ATOM
1      C1     -0.5144    2.3540   -1.3023 C.3      1 ZINC000072438715    0.0300
2      O2     -0.4734    0.9499   -1.0399 O.3      1 ZINC000072438715   -0.3200
3      C3      0.3119    0.1933   -1.8511 C.ar     1 ZINC000072438715    0.1000
4      C4      1.0305    0.7912   -2.8724 C.ar     1 ZINC000072438715   -0.1500
5      C5      1.8354    0.0106   -3.7028 C.ar     1 ZINC000072438715   -0.0900
6      C6      2.6063    0.6417   -4.7954 C.2      1 ZINC000072438715    0.5900
7      O7      2.6480    1.8529   -4.8888 O.2      1 ZINC000072438715   -0.5600
8      N8      3.2626   -0.1260   -5.6878 N.am     1 ZINC000072438715   -0.5800
9      C9      4.0910    0.3701   -6.8036 C.3      1 ZINC000072438715    0.1200
10     C10     5.0555   -0.7891   -7.1231 C.3      1 ZINC000072438715   -0.0700
11     C11     4.1718   -2.0326   -6.8870 C.3      1 ZINC000072438715   -0.1000
12     C12     3.2765   -1.5966   -5.7064 C.3      1 ZINC000072438715    0.0400
13     H13     3.6833   -1.9810   -4.7711 H        1 ZINC000072438715    0.0800
14     C14     1.8757   -2.1149   -5.9070 C.2      1 ZINC000072438715    0.4900
15     O15     1.5771   -3.2311   -5.5179 O.co2    1 ZINC000072438715   -0.6900
16     O16     1.0409   -1.4179   -6.4583 O.co2    1 ZINC000072438715   -0.6700
17     C17     5.5100   -0.7243   -8.5732 C.3      1 ZINC000072438715   -0.1200
18     C18     6.4102   -1.9267   -8.8816 C.3      1 ZINC000072438715    0.1100
19     N19     7.4907   -1.9735   -7.8870 N.am     1 ZINC000072438715   -0.6100
20     C20     8.7805   -2.0034   -8.2768 C.2      1 ZINC000072438715    0.5100
21     C21     9.1231   -2.1114   -9.7404 C.3      1 ZINC000072438715   -0.1800
22     O22     9.6655   -1.9434   -7.4497 O.2      1 ZINC000072438715   -0.5500
23     C23     7.1405   -1.9866   -6.4600 C.3      1 ZINC000072438715    0.1100
24     C24     6.2367   -0.7837   -6.1648 C.3      1 ZINC000072438715   -0.1200
25     C25     1.9108   -1.3679   -3.4982 C.ar     1 ZINC000072438715   -0.1300
26     C26     1.1903   -1.9536   -2.4772 C.ar     1 ZINC000072438715   -0.0800
27     C27     0.3976   -1.1782   -1.6516 C.ar     1 ZINC000072438715   -0.1000
28     C28    -0.3856   -1.8254   -0.5386 C.3      1 ZINC000072438715   -0.1000
29     H29     0.4887    2.7703   -1.2102 H        1 ZINC000072438715    0.0500
30     H30    -0.8871    2.5241   -2.3124 H        1 ZINC000072438715    0.0500
31     H31    -1.1762    2.8385   -0.5845 H        1 ZINC000072438715    0.1000
32     H32     0.9679    1.8583   -3.0260 H        1 ZINC000072438715    0.1300
33     H33     3.4672    0.5943   -7.6690 H        1 ZINC000072438715    0.0700
34     H34     4.6492    1.2550   -6.4977 H        1 ZINC000072438715    0.0700
35     H35     3.5725   -2.2534   -7.7703 H        1 ZINC000072438715    0.0800
36     H36     4.7816   -2.8921   -6.6084 H        1 ZINC000072438715    0.0800
37     H37     4.6390   -0.7452   -9.2282 H        1 ZINC000072438715    0.0800
38     H38     6.0667    0.1981   -8.7386 H        1 ZINC000072438715    0.0700
39     H39     5.8248   -2.8447   -8.8290 H        1 ZINC000072438715    0.0800
40     H40     6.8358   -1.8184   -9.8792 H        1 ZINC000072438715    0.0900
41     H41     9.2669   -1.1134  -10.1545 H        1 ZINC000072438715    0.0900
42     H42    10.0401   -2.6889   -9.8572 H        1 ZINC000072438715    0.0900
43     H43     8.3100   -2.6100  -10.2680 H        1 ZINC000072438715    0.0800
44     H44     6.6109   -2.9091   -6.2220 H        1 ZINC000072438715    0.0700
45     H45     8.0480   -1.9180   -5.8602 H        1 ZINC000072438715    0.0900
46     H46     6.8047    0.1377   -6.2935 H        1 ZINC000072438715    0.0700
47     H47     5.8727   -0.8458   -5.1393 H        1 ZINC000072438715    0.0800
48     H48     2.5323   -1.9760   -4.1388 H        1 ZINC000072438715    0.1800
49     H49     1.2492   -3.0205   -2.3201 H        1 ZINC000072438715    0.1300
50     H50     0.2205   -1.8473    0.3671 H        1 ZINC000072438715    0.0600
51     H51    -1.2947   -1.2531   -0.3536 H        1 ZINC000072438715    0.0700
52     H52    -0.6491   -2.8437   -0.8242 H        1 ZINC000072438715    0.0700
@<TRIPOS>BOND
1     1     2     1
2     1     29    1
3     1     30    1
4     1     31    1
5     2     3     1
6     3     27    ar
7     3     4     ar
8     4     5     ar
9     4     32    1
10    5     6     1
11    5     25    ar
12    6     7     2
13    6     8     am
14    8     12    1
15    8     9     1
16    9     10    1
17    9     33    1
18    9     34    1
19    10    24    1
20    10    11    1
21    10    17    1
22    11    12    1
23    11    35    1
24    11    36    1
25    12    13    1
26    12    14    1
27    14    15    ar
28    14    16    ar
29    17    18    1
30    17    37    1
31    17    38    1
32    18    19    1
33    18    39    1
34    18    40    1
35    19    20    am
36    19    23    1
37    20    21    1
38    20    22    2
39    21    41    1
40    21    42    1
41    21    43    1
42    23    24    1
43    23    44    1
44    23    45    1
45    24    46    1
46    24    47    1
47    25    26    ar
48    25    48    1
49    26    27    ar
50    26    49    1
51    27    28    1
52    28    50    1
53    28    51    1
54    28    52    1
@<TRIPOS>SUBSTRUCTURE
1   ZINC000072438715 1     RESIDUE    1   A     ZIN   1
@<TRIPOS>MOLECULE
ZINC000077340529
44    46    1     0     0
SMALL
USER_CHARGES
@<TRIPOS>ATOM
1      C1     -2.4167   -1.2545    1.5314 C.3      1 ZINC000077340529   -0.1300
2      C2     -1.1391   -1.3346    0.7362 C.2      1 ZINC000077340529    0.0900
3      C3     -1.0756   -2.0905   -0.4272 C.2      1 ZINC000077340529   -0.2800
4      C4     -2.2218   -2.8093   -0.8966 C.1      1 ZINC000077340529    0.3100
5      N5     -3.1311   -3.3794   -1.2690 N.1      1 ZINC000077340529   -0.5000
6      C6      0.1900   -2.1358   -1.1639 C.2      1 ZINC000077340529    0.5200
7      O7      0.2791   -2.7891   -2.1883 O.2      1 ZINC000077340529   -0.5800
8      N8      1.2540   -1.4513   -0.7031 N.pl3    1 ZINC000077340529   -0.6200
9      C9      1.1808   -0.7235    0.4235 C.2      1 ZINC000077340529    0.2300
10     C10     0.0128   -0.6393    1.1556 C.2      1 ZINC000077340529   -0.3500
11     C11    -0.0258    0.1715    2.3875 C.2      1 ZINC000077340529    0.6000
12     O12     0.0991   -0.3640    3.4720 O.2      1 ZINC000077340529   -0.5500
13     N13    -0.1994    1.5058    2.3108 N.am     1 ZINC000077340529   -0.6100
14     C14    -0.4782    2.1516    1.0209 C.3      1 ZINC000077340529    0.1100
15     C15     0.5412    3.2736    0.8006 C.3      1 ZINC000077340529   -0.1300
16     C16     0.5133    4.2252    1.9989 C.3      1 ZINC000077340529   -0.1100
17     C17     0.9014    3.4622    3.2675 C.3      1 ZINC000077340529   -0.1300
18     H18     1.8950    3.0316    3.1434 H        1 ZINC000077340529    0.1100
19     C19     0.9058    4.4073    4.4413 C.2      1 ZINC000077340529    0.4600
20     O20     0.1575    5.3624    4.4540 O.2      1 ZINC000077340529   -0.4600
21     C21     1.8138    4.1728    5.5675 C.2      1 ZINC000077340529    0.1000
22     N22     2.6755    3.1798    5.6720 N.2      1 ZINC000077340529   -0.4200
23     C23     3.3260    3.2888    6.8254 C.2      1 ZINC000077340529   -0.0200
24     C24     2.8631    4.3875    7.4765 C.2      1 ZINC000077340529   -0.0300
25     N25     1.9180    4.9499    6.6895 N.pl3    1 ZINC000077340529   -0.4200
26     C26     1.1446    6.1582    6.9864 C.3      1 ZINC000077340529    0.0600
27     C27    -0.1195    2.3416    3.5166 C.3      1 ZINC000077340529    0.1300
28     H28    -2.9760   -0.3681    1.2320 H        1 ZINC000077340529    0.0700
29     H29    -3.0180   -2.1441    1.3436 H        1 ZINC000077340529    0.0600
30     H30    -2.1803   -1.1934    2.5937 H        1 ZINC000077340529    0.0700
31     H31     2.0552   -0.1879    0.7627 H        1 ZINC000077340529    0.1300
32     H32    -0.3932    1.4180    0.2191 H        1 ZINC000077340529    0.1000
33     H33    -1.4849    2.5694    1.0314 H        1 ZINC000077340529    0.0600
34     H34     1.5382    2.8447    0.6998 H        1 ZINC000077340529    0.0700
35     H35     0.2875    3.8228   -0.1061 H        1 ZINC000077340529    0.0800
36     H36     1.2203    5.0382    1.8335 H        1 ZINC000077340529    0.0700
37     H37    -0.4903    4.6347    2.1141 H        1 ZINC000077340529    0.0700
38     H38     4.0925    2.6180    7.1843 H        1 ZINC000077340529    0.1800
39     H39     3.1913    4.7469    8.4406 H        1 ZINC000077340529    0.1800
40     H40     1.6738    7.0313    6.6046 H        1 ZINC000077340529    0.0800
41     H41     0.1664    6.0895    6.5105 H        1 ZINC000077340529    0.1000
42     H42     1.0182    6.2529    8.0648 H        1 ZINC000077340529    0.0900
43     H43    -1.0954    2.7774    3.7309 H        1 ZINC000077340529    0.0600
44     H44     0.2046    1.7331    4.3608 H        1 ZINC000077340529    0.1000
@<TRIPOS>BOND
1     1     2     1
2     1     28    1
3     1     29    1
4     1     30    1
5     2     10    1
6     2     3     2
7     3     4     1
8     3     6     1
9     4     5     3
10    6     7     2
11    6     8     1
12    8     9     1
13    9     10    2
14    9     31    1
15    10    11    1
16    11    12    2
17    11    13    am
18    13    27    1
19    13    14    1
20    14    15    1
21    14    32    1
22    14    33    1
23    15    16    1
24    15    34    1
25    15    35    1
26    16    17    1
27    16    36    1
28    16    37    1
29    17    18    1
30    17    19    1
31    17    27    1
32    19    20    2
33    19    21    1
34    21    25    1
35    21    22    2
36    22    23    1
37    23    24    2
38    23    38    1
39    24    25    1
40    24    39    1
41    25    26    1
42    26    40    1
43    26    41    1
44    26    42    1
45    27    43    1
46    27    44    1
@<TRIPOS>SUBSTRUCTURE
1   ZINC000077340529 1     RESIDUE    1   A     ZIN   1

@<TRIPOS>MOLECULE
ZINC000077340529
45    47    1     0     0
SMALL
USER_CHARGES
@<TRIPOS>ATOM
1      C1     -2.4167   -1.2545    1.5314 C.3      1 ZINC000077340529   -0.1400
2      C2     -1.1391   -1.3346    0.7362 C.2      1 ZINC000077340529    0.1100
3      C3     -1.0756   -2.0905   -0.4272 C.2      1 ZINC000077340529   -0.1600
4      C4     -2.2218   -2.8093   -0.8966 C.1      1 ZINC000077340529    0.2700
5      N5     -3.1311   -3.3794   -1.2690 N.1      1 ZINC000077340529   -0.4100
6      C6      0.1900   -2.1358   -1.1639 C.2      1 ZINC000077340529    0.5400
7      O7      0.2791   -2.7891   -2.1883 O.2      1 ZINC000077340529   -0.5100
8      N8      1.2540   -1.4513   -0.7031 N.am     1 ZINC000077340529   -0.5900
9      C9      1.1808   -0.7235    0.4235 C.2      1 ZINC000077340529    0.2100
10     C10     0.0128   -0.6393    1.1556 C.2      1 ZINC000077340529   -0.2400
11     C11    -0.0258    0.1715    2.3875 C.2      1 ZINC000077340529    0.5800
12     O12     0.0991   -0.3640    3.4720 O.2      1 ZINC000077340529   -0.5100
13     N13    -0.1994    1.5058    2.3108 N.am     1 ZINC000077340529   -0.6000
14     C14    -0.4782    2.1516    1.0209 C.3      1 ZINC000077340529    0.1000
15     C15     0.5412    3.2736    0.8006 C.3      1 ZINC000077340529   -0.1300
16     C16     0.5133    4.2252    1.9989 C.3      1 ZINC000077340529   -0.1100
17     C17     0.9014    3.4622    3.2675 C.3      1 ZINC000077340529   -0.1300
18     H18     1.8950    3.0316    3.1434 H        1 ZINC000077340529    0.1200
19     C19     0.9058    4.4073    4.4413 C.2      1 ZINC000077340529    0.4600
20     O20     0.1575    5.3624    4.4540 O.2      1 ZINC000077340529   -0.4500
21     C21     1.8138    4.1728    5.5675 C.2      1 ZINC000077340529    0.0900
22     N22     2.6755    3.1798    5.6720 N.2      1 ZINC000077340529   -0.4200
23     C23     3.3260    3.2888    6.8254 C.2      1 ZINC000077340529   -0.0200
24     C24     2.8631    4.3875    7.4765 C.2      1 ZINC000077340529   -0.0200
25     N25     1.9180    4.9499    6.6895 N.pl3    1 ZINC000077340529   -0.4200
26     C26     1.1446    6.1582    6.9864 C.3      1 ZINC000077340529    0.0600
27     C27    -0.1195    2.3416    3.5166 C.3      1 ZINC000077340529    0.1300
28     H28    -2.9760   -0.3681    1.2320 H        1 ZINC000077340529    0.1000
29     H29    -3.0180   -2.1441    1.3436 H        1 ZINC000077340529    0.0800
30     H30    -2.1803   -1.1934    2.5937 H        1 ZINC000077340529    0.0900
31     H31     2.0898   -1.4847   -1.1941 H        1 ZINC000077340529    0.4300
32     H32     2.0552   -0.1879    0.7627 H        1 ZINC000077340529    0.1800
33     H33    -0.3932    1.4180    0.2191 H        1 ZINC000077340529    0.0900
34     H34    -1.4849    2.5694    1.0314 H        1 ZINC000077340529    0.0800
35     H35     1.5382    2.8447    0.6998 H        1 ZINC000077340529    0.0700
36     H36     0.2875    3.8228   -0.1061 H        1 ZINC000077340529    0.0900
37     H37     1.2203    5.0382    1.8335 H        1 ZINC000077340529    0.0700
38     H38    -0.4903    4.6347    2.1141 H        1 ZINC000077340529    0.0800
39     H39     4.0925    2.6180    7.1843 H        1 ZINC000077340529    0.1800
40     H40     3.1913    4.7469    8.4406 H        1 ZINC000077340529    0.1900
41     H41     1.6738    7.0313    6.6046 H        1 ZINC000077340529    0.0800
42     H42     0.1664    6.0895    6.5105 H        1 ZINC000077340529    0.1000
43     H43     1.0182    6.2529    8.0648 H        1 ZINC000077340529    0.0900
44     H44    -1.0954    2.7774    3.7309 H        1 ZINC000077340529    0.0800
45     H45     0.2046    1.7331    4.3608 H        1 ZINC000077340529    0.1100
@<TRIPOS>BOND
1     1     2     1
2     1     28    1
3     1     29    1
4     1     30    1
5     2     10    1
6     2     3     2
7     3     4     1
8     3     6     1
9     4     5     3
10    6     7     2
11    6     8     am
12    8     9     1
13    8     31    1
14    9     10    2
15    9     32    1
16    10    11    1
17    11    12    2
18    11    13    am
19    13    27    1
20    13    14    1
21    14    15    1
22    14    33    1
23    14    34    1
24    15    16    1
25    15    35    1
26    15    36    1
27    16    17    1
28    16    37    1
29    16    38    1
30    17    18    1
31    17    19    1
32    17    27    1
33    19    20    2
34    19    21    1
35    21    25    1
36    21    22    2
37    22    23    1
38    23    24    2
39    23    39    1
40    24    25    1
41    24    40    1
42    25    26    1
43    26    41    1
44    26    42    1
45    26    43    1
46    27    44    1
47    27    45    1
@<TRIPOS>SUBSTRUCTURE
1   ZINC000077340529 1     RESIDUE    1   A     ZIN   1
@<TRIPOS>MOLECULE
ZINC000077674926
  48   51    0    0    0
SMALL
USER_CHARGES
NO_NAME
@<TRIPOS>ATOM
    1 C1        1.4219     1.1633    -0.9326 C.3    1 <0>      -0.0800
    2 C2        1.2695    -0.3348    -0.8737 C.2    1 <0>      -0.0200
    3 C3        0.1247    -1.0256    -0.6572 C.2    1 <0>      -0.2400
    4 C4        0.5292    -2.3796    -0.7001 C.2    1 <0>       0.0200
    5 C5       -0.3496    -3.5905    -0.5203 C.3    1 <0>       0.1300
    6 N6       -0.7783    -4.0841    -1.8358 N.3    1 <0>      -0.5300
    7 C7       -1.2292    -2.9785    -2.6916 C.3    1 <0>       0.0400
    8 C8       -1.4943    -3.5066    -4.1054 C.3    1 <0>       0.1100
    9 N9       -2.4255    -4.6414    -4.0133 N.am   1 <0>      -0.6100
   10 C10      -3.5388    -4.6859    -4.7716 C.2    1 <0>       0.5700
   11 O11      -4.2599    -5.6646    -4.7362 O.2    1 <0>      -0.5100
   12 C12      -3.8825    -3.5487    -5.6434 C.ar   1 <0>      -0.2300
   13 C13      -5.1499    -2.9576    -5.5702 C.ar   1 <0>       0.2500
   14 O14      -6.0840    -3.4116    -4.7042 O.3    1 <0>      -0.4700
   15 C15      -5.4194    -1.8708    -6.4311 C.ar   1 <0>      -0.1900
   16 C16      -6.6647    -1.2223    -6.4202 C.ar   1 <0>      -0.0200
   17 C17      -6.8551    -0.1763    -7.2817 C.ar   1 <0>      -0.1800
   18 C18      -5.8266     0.2123    -8.1332 C.ar   1 <0>       0.2000
   19 C19      -6.0520     1.3664    -9.0757 C.3    1 <0>      -0.1100
   20 N20      -4.6649    -0.3984    -8.1383 N.ar   1 <0>      -0.4700
   21 C21      -4.4134    -1.4264    -7.3227 C.ar   1 <0>       0.3400
   22 N22      -3.2203    -2.0362    -7.3428 N.ar   1 <0>      -0.4700
   23 C23      -2.9412    -3.0415    -6.5530 C.ar   1 <0>       0.2000
   24 C24      -2.1092    -5.7265    -3.0722 C.3    1 <0>       0.1200
   25 C25      -1.8199    -5.1109    -1.6990 C.3    1 <0>       0.0400
   26 N26       1.8111    -2.3730    -0.9266 N.2    1 <0>      -0.3400
   27 O27       2.2390    -1.2469    -1.0312 O.3    1 <0>       0.1000
   28 H28       2.4644     1.4151    -1.1270 H      1 <0>       0.0900
   29 H29       0.7968     1.5610    -1.7321 H      1 <0>       0.0900
   30 H30       1.1147     1.5974     0.0189 H      1 <0>       0.0900
   31 H31      -0.8675    -0.6330    -0.4903 H      1 <0>       0.1700
   32 H32       0.2088    -4.3712    -0.0037 H      1 <0>       0.1000
   33 H33      -1.2255    -3.3195     0.0692 H      1 <0>       0.0600
   34 H34      -2.1466    -2.5538    -2.2840 H      1 <0>       0.0400
   35 H35      -0.4574    -2.2097    -2.7293 H      1 <0>       0.0900
   36 H36      -1.9371    -2.7181    -4.7138 H      1 <0>       0.0900
   37 H37      -0.5577    -3.8371    -4.5545 H      1 <0>       0.0900
   38 H38      -6.0586    -2.9829    -3.8378 H      1 <0>       0.4000
   39 H39      -7.4503    -1.5404    -5.7508 H      1 <0>       0.1500
   40 H40      -7.8006     0.3453    -7.3004 H      1 <0>       0.1500
   41 H41      -5.7604     2.2964    -8.5876 H      1 <0>       0.0900
   42 H42      -5.4520     1.2241    -9.9745 H      1 <0>       0.0900
   43 H43      -7.1068     1.4136    -9.3466 H      1 <0>       0.0800
   44 H44      -1.9641    -3.4982    -6.6083 H      1 <0>       0.1800
   45 H45      -2.9585    -6.4055    -2.9974 H      1 <0>       0.1000
   46 H46      -1.2317    -6.2703    -3.4219 H      1 <0>       0.0800
   47 H47      -1.4765    -5.8886    -1.0168 H      1 <0>       0.1000
   48 H48      -2.7291    -4.6566    -1.3052 H      1 <0>       0.0400
@<TRIPOS>BOND
   1    1    2 1
   2    1   28 1
   3    1   29 1
   4    1   30 1
   5    2   27 1
   6    2    3 2
   7    3    4 1
   8    3   31 1
   9    4    5 1
  10    4   26 2
  11    5    6 1
  12    5   32 1
  13    5   33 1
  14    6   25 1
  15    6    7 1
  16    7    8 1
  17    7   34 1
  18    7   35 1
  19    8    9 1
  20    8   36 1
  21    8   37 1
  22    9   10 am
  23    9   24 1
  24   10   11 2
  25   10   12 1
  26   12   23 ar
  27   12   13 ar
  28   13   14 1
  29   13   15 ar
  30   14   38 1
  31   15   21 ar
  32   15   16 ar
  33   16   17 ar
  34   16   39 1
  35   17   18 ar
  36   17   40 1
  37   18   19 1
  38   18   20 ar
  39   19   41 1
  40   19   42 1
  41   19   43 1
  42   20   21 ar
  43   21   22 ar
  44   22   23 ar
  45   23   44 1
  46   24   25 1
  47   24   45 1
  48   24   46 1
  49   25   47 1
  50   25   48 1
  51   26   27 1

@<TRIPOS>MOLECULE
ZINC000077674926
  47   50    0    0    0
SMALL
USER_CHARGES
NO_NAME
@<TRIPOS>ATOM
    1 C1       -0.2391     1.6363    -0.0070 C.3    1 <0>      -0.0700
    2 C2       -0.2346     0.1300     0.0383 C.2    1 <0>      -0.0300
    3 C3       -1.3155    -0.6856     0.0036 C.2    1 <0>      -0.2300
    4 C4       -0.7648    -1.9859     0.0719 C.2    1 <0>       0.0200
    5 C5       -1.5225    -3.2886     0.0685 C.3    1 <0>       0.1300
    6 N6       -1.5889    -3.8128    -1.3022 N.3    1 <0>      -0.5300
    7 C7       -1.9560    -2.7550    -2.2532 C.3    1 <0>       0.0400
    8 C8       -1.8381    -3.2945    -3.6826 C.3    1 <0>       0.1200
    9 N9       -2.6353    -4.5263    -3.7844 N.am   1 <0>      -0.6200
   10 C10      -3.5388    -4.6859    -4.7716 C.2    1 <0>       0.6200
   11 O11      -3.7724    -3.7693    -5.5363 O.2    1 <0>      -0.5600
   12 C12      -4.2428    -5.9691    -4.9242 C.2    1 <0>      -0.4500
   13 C13      -5.3359    -6.2681    -4.1387 C.2    1 <0>       0.2300
   14 N14      -6.0022    -7.4257    -4.2494 N.pl3  1 <0>      -0.6100
   15 C15      -5.6539    -8.4055    -5.1497 C.ar   1 <0>       0.3800
   16 N16      -6.3502    -9.5337    -5.2169 N.ar   1 <0>      -0.5100
   17 C17      -6.0412   -10.4889    -6.0683 C.ar   1 <0>       0.1700
   18 C18      -6.8715   -11.7462    -6.0951 C.3    1 <0>      -0.1000
   19 C19      -4.9714   -10.3668    -6.9408 C.ar   1 <0>      -0.2500
   20 C20      -4.2075    -9.2137    -6.9184 C.ar   1 <0>       0.0000
   21 C21      -4.5551    -8.2155    -6.0062 C.ar   1 <0>      -0.2900
   22 C22      -3.7969    -6.9548    -5.9227 C.2    1 <0>       0.4300
   23 O23      -2.8402    -6.7392    -6.6459 O.2    1 <0>      -0.5600
   24 C24      -2.4199    -5.5794    -2.7805 C.3    1 <0>       0.1200
   25 C25      -2.5149    -4.9500    -1.3866 C.3    1 <0>       0.0400
   26 N26       0.5265    -1.8351     0.1377 N.2    1 <0>      -0.3500
   27 O27       0.8401    -0.6674     0.1149 O.3    1 <0>       0.1000
   28 H28       0.7862     2.0040     0.0329 H      1 <0>       0.0800
   29 H29      -0.7094     1.9706    -0.9317 H      1 <0>       0.0900
   30 H30      -0.7974     2.0237     0.8453 H      1 <0>       0.0900
   31 H31      -2.3570    -0.4070    -0.0613 H      1 <0>       0.1700
   32 H32      -1.0113    -4.0079     0.7082 H      1 <0>       0.0900
   33 H33      -2.5325    -3.1224     0.4432 H      1 <0>       0.0600
   34 H34      -2.9824    -2.4389    -2.0672 H      1 <0>       0.0400
   35 H35      -1.2850    -1.9051    -2.1286 H      1 <0>       0.0800
   36 H36      -2.2177    -2.5535    -4.3861 H      1 <0>       0.0900
   37 H37      -0.7941    -3.5144    -3.9060 H      1 <0>       0.0700
   38 H38      -5.6664    -5.5444    -3.4084 H      1 <0>       0.1200
   39 H39      -7.6916   -11.6250    -6.8028 H      1 <0>       0.0700
   40 H40      -6.2485   -12.5866    -6.4014 H      1 <0>       0.0700
   41 H41      -7.2749   -11.9366    -5.1005 H      1 <0>       0.0700
   42 H42      -4.7364   -11.1637    -7.6309 H      1 <0>       0.1200
   43 H43      -3.3680    -9.0893    -7.5863 H      1 <0>       0.1300
   44 H44      -3.1842    -6.3491    -2.8876 H      1 <0>       0.1000
   45 H45      -1.4319    -6.0191    -2.9172 H      1 <0>       0.0700
   46 H46      -2.2493    -5.6920    -0.6336 H      1 <0>       0.0900
   47 H47      -3.5336    -4.6033    -1.2127 H      1 <0>       0.0400
@<TRIPOS>BOND
   1    1    2 1
   2    1   28 1
   3    1   29 1
   4    1   30 1
   5    2   27 1
   6    2    3 2
   7    3    4 1
   8    3   31 1
   9    4    5 1
  10    4   26 2
  11    5    6 1
  12    5   32 1
  13    5   33 1
  14    6   25 1
  15    6    7 1
  16    7    8 1
  17    7   34 1
  18    7   35 1
  19    8    9 1
  20    8   36 1
  21    8   37 1
  22    9   10 am
  23    9   24 1
  24   10   11 2
  25   10   12 1
  26   12   22 1
  27   12   13 2
  28   13   14 1
  29   13   38 1
  30   14   15 1
  31   15   21 ar
  32   15   16 ar
  33   16   17 ar
  34   17   18 1
  35   17   19 ar
  36   18   39 1
  37   18   40 1
  38   18   41 1
  39   19   20 ar
  40   19   42 1
  41   20   21 ar
  42   20   43 1
  43   21   22 1
  44   22   23 2
  45   24   25 1
  46   24   44 1
  47   24   45 1
  48   25   46 1
  49   25   47 1
  50   26   27 1

@<TRIPOS>MOLECULE
ZINC000077674926
  47   50    0    0    0
SMALL
USER_CHARGES
NO_NAME
@<TRIPOS>ATOM
    1 C1        1.4223     1.1632    -0.9329 C.3    1 <0>      -0.0800
    2 C2        1.2698    -0.3350    -0.8740 C.2    1 <0>      -0.0300
    3 C3        0.1250    -1.0257    -0.6574 C.2    1 <0>      -0.2300
    4 C4        0.5295    -2.3797    -0.7003 C.2    1 <0>       0.0200
    5 C5       -0.3494    -3.5906    -0.5205 C.3    1 <0>       0.1300
    6 N6       -0.7782    -4.0842    -1.8360 N.3    1 <0>      -0.5300
    7 C7       -1.2290    -2.9785    -2.6917 C.3    1 <0>       0.0400
    8 C8       -1.4942    -3.5067    -4.1055 C.3    1 <0>       0.1100
    9 N9       -2.4254    -4.6414    -4.0134 N.am   1 <0>      -0.6200
   10 C10      -3.5388    -4.6859    -4.7716 C.2    1 <0>       0.6000
   11 O11      -4.2599    -5.6646    -4.7361 O.2    1 <0>      -0.5400
   12 C12      -3.8825    -3.5487    -5.6434 C.ar   1 <0>      -0.3900
   13 C13      -5.1499    -2.9576    -5.5702 C.ar   1 <0>       0.3600
   14 O14      -6.0840    -3.4116    -4.7042 O.3    1 <0>      -0.6500
   15 C15      -5.4194    -1.8708    -6.4311 C.ar   1 <0>      -0.2400
   16 C16      -6.6647    -1.2223    -6.4202 C.ar   1 <0>       0.0100
   17 C17      -6.8551    -0.1763    -7.2817 C.ar   1 <0>      -0.2400
   18 C18      -5.8266     0.2123    -8.1332 C.ar   1 <0>       0.1700
   19 C19      -6.0520     1.3664    -9.0757 C.3    1 <0>      -0.1000
   20 N20      -4.6649    -0.3984    -8.1383 N.ar   1 <0>      -0.5000
   21 C21      -4.4134    -1.4264    -7.3227 C.ar   1 <0>       0.3600
   22 N22      -3.2203    -2.0362    -7.3428 N.ar   1 <0>      -0.5700
   23 C23      -2.9412    -3.0415    -6.5530 C.ar   1 <0>       0.2200
   24 C24      -2.1091    -5.7265    -3.0722 C.3    1 <0>       0.1200
   25 C25      -1.8197    -5.1110    -1.6991 C.3    1 <0>       0.0400
   26 N26       1.8114    -2.3732    -0.9268 N.2    1 <0>      -0.3500
   27 O27       2.2393    -1.2471    -1.0315 O.3    1 <0>       0.1000
   28 H28       2.4648     1.4149    -1.1274 H      1 <0>       0.0800
   29 H29       0.7972     1.5609    -1.7324 H      1 <0>       0.0900
   30 H30       1.1151     1.5973     0.0186 H      1 <0>       0.0900
   31 H31      -0.8672    -0.6330    -0.4904 H      1 <0>       0.1700
   32 H32       0.2090    -4.3713    -0.0039 H      1 <0>       0.0900
   33 H33      -1.2252    -3.3196     0.0691 H      1 <0>       0.0600
   34 H34      -2.1464    -2.5539    -2.2840 H      1 <0>       0.0400
   35 H35      -0.4573    -2.2098    -2.7294 H      1 <0>       0.0800
   36 H36      -1.9370    -2.7181    -4.7139 H      1 <0>       0.1000
   37 H37      -0.5576    -3.8372    -4.5546 H      1 <0>       0.0700
   38 H38      -7.4503    -1.5404    -5.7508 H      1 <0>       0.1300
   39 H39      -7.8006     0.3453    -7.3004 H      1 <0>       0.1200
   40 H40      -5.7604     2.2964    -8.5876 H      1 <0>       0.0700
   41 H41      -5.4520     1.2241    -9.9745 H      1 <0>       0.0700
   42 H42      -7.1068     1.4136    -9.3466 H      1 <0>       0.0700
   43 H43      -1.9641    -3.4982    -6.6083 H      1 <0>       0.1400
   44 H44      -2.9585    -6.4055    -2.9974 H      1 <0>       0.0900
   45 H45      -1.2317    -6.2704    -3.4220 H      1 <0>       0.0700
   46 H46      -1.4764    -5.8887    -1.0169 H      1 <0>       0.0900
   47 H47      -2.7289    -4.6566    -1.3052 H      1 <0>       0.0400
@<TRIPOS>BOND
   1    1    2 1
   2    1   28 1
   3    1   29 1
   4    1   30 1
   5    2   27 1
   6    2    3 2
   7    3    4 1
   8    3   31 1
   9    4    5 1
  10    4   26 2
  11    5    6 1
  12    5   32 1
  13    5   33 1
  14    6   25 1
  15    6    7 1
  16    7    8 1
  17    7   34 1
  18    7   35 1
  19    8    9 1
  20    8   36 1
  21    8   37 1
  22    9   10 am
  23    9   24 1
  24   10   11 2
  25   10   12 1
  26   12   23 ar
  27   12   13 ar
  28   13   14 1
  29   13   15 ar
  30   15   21 ar
  31   15   16 ar
  32   16   17 ar
  33   16   38 1
  34   17   18 ar
  35   17   39 1
  36   18   19 1
  37   18   20 ar
  38   19   40 1
  39   19   41 1
  40   19   42 1
  41   20   21 ar
  42   21   22 ar
  43   22   23 ar
  44   23   43 1
  45   24   25 1
  46   24   44 1
  47   24   45 1
  48   25   46 1
  49   25   47 1
  50   26   27 1

@<TRIPOS>MOLECULE
ZINC000077674926
  48   51    0    0    0
SMALL
USER_CHARGES
NO_NAME
@<TRIPOS>ATOM
    1 C1       -0.2391     1.6363    -0.0070 C.3    1 <0>      -0.0800
    2 C2       -0.2346     0.1300     0.0383 C.2    1 <0>      -0.0300
    3 C3       -1.3155    -0.6856     0.0036 C.2    1 <0>      -0.2400
    4 C4       -0.7648    -1.9859     0.0719 C.2    1 <0>       0.0200
    5 C5       -1.5225    -3.2886     0.0685 C.3    1 <0>       0.1300
    6 N6       -1.5889    -3.8128    -1.3022 N.3    1 <0>      -0.5300
    7 C7       -1.9560    -2.7550    -2.2532 C.3    1 <0>       0.0400
    8 C8       -1.8381    -3.2945    -3.6826 C.3    1 <0>       0.1200
    9 N9       -2.6353    -4.5263    -3.7844 N.am   1 <0>      -0.6100
   10 C10      -3.5388    -4.6859    -4.7716 C.2    1 <0>       0.6000
   11 O11      -3.7724    -3.7693    -5.5363 O.2    1 <0>      -0.5400
   12 C12      -4.2428    -5.9691    -4.9242 C.2    1 <0>      -0.3700
   13 C13      -5.3359    -6.2681    -4.1387 C.2    1 <0>       0.2300
   14 N14      -6.0022    -7.4257    -4.2494 N.pl3  1 <0>      -0.6100
   15 C15      -5.6539    -8.4055    -5.1497 C.ar   1 <0>       0.4000
   16 N16      -6.3502    -9.5337    -5.2169 N.ar   1 <0>      -0.4900
   17 H17      -7.1069    -9.6574    -4.6228 H      1 <0>       0.4300
   18 C18      -6.0414   -10.4887    -6.0685 C.ar   1 <0>       0.2100
   19 C19      -6.8720   -11.7459    -6.0957 C.3    1 <0>      -0.1400
   20 C20      -4.9717   -10.3666    -6.9411 C.ar   1 <0>      -0.2200
   21 C21      -4.2075    -9.2137    -6.9184 C.ar   1 <0>       0.0800
   22 C22      -4.5551    -8.2155    -6.0062 C.ar   1 <0>      -0.2600
   23 C23      -3.7969    -6.9548    -5.9227 C.2    1 <0>       0.4400
   24 O24      -2.8402    -6.7392    -6.6459 O.2    1 <0>      -0.4900
   25 C25      -2.4199    -5.5794    -2.7805 C.3    1 <0>       0.1200
   26 C26      -2.5149    -4.9500    -1.3866 C.3    1 <0>       0.0400
   27 N27       0.5265    -1.8351     0.1377 N.2    1 <0>      -0.3500
   28 O28       0.8401    -0.6674     0.1149 O.3    1 <0>       0.1000
   29 H29       0.7862     2.0040     0.0329 H      1 <0>       0.0800
   30 H30      -0.7094     1.9706    -0.9317 H      1 <0>       0.0900
   31 H31      -0.7974     2.0237     0.8453 H      1 <0>       0.0900
   32 H32      -2.3570    -0.4070    -0.0613 H      1 <0>       0.1700
   33 H33      -1.0113    -4.0079     0.7082 H      1 <0>       0.1000
   34 H34      -2.5325    -3.1224     0.4432 H      1 <0>       0.0600
   35 H35      -2.9824    -2.4389    -2.0672 H      1 <0>       0.0400
   36 H36      -1.2850    -1.9051    -2.1286 H      1 <0>       0.0900
   37 H37      -2.2177    -2.5535    -4.3861 H      1 <0>       0.1000
   38 H38      -0.7941    -3.5144    -3.9060 H      1 <0>       0.0700
   39 H39      -5.6664    -5.5444    -3.4084 H      1 <0>       0.1500
   40 H40      -7.6922   -11.6242    -6.8033 H      1 <0>       0.1100
   41 H41      -6.2493   -12.5863    -6.4023 H      1 <0>       0.1100
   42 H42      -7.2755   -11.9364    -5.1012 H      1 <0>       0.0900
   43 H43      -4.7369   -11.1633    -7.6314 H      1 <0>       0.1700
   44 H44      -3.3680    -9.0893    -7.5864 H      1 <0>       0.1600
   45 H45      -3.1842    -6.3491    -2.8876 H      1 <0>       0.0900
   46 H46      -1.4319    -6.0191    -2.9172 H      1 <0>       0.0800
   47 H47      -2.2493    -5.6920    -0.6336 H      1 <0>       0.0900
   48 H48      -3.5336    -4.6033    -1.2127 H      1 <0>       0.0400
@<TRIPOS>BOND
   1    1    2 1
   2    1   29 1
   3    1   30 1
   4    1   31 1
   5    2   28 1
   6    2    3 2
   7    3    4 1
   8    3   32 1
   9    4    5 1
  10    4   27 2
  11    5    6 1
  12    5   33 1
  13    5   34 1
  14    6   26 1
  15    6    7 1
  16    7    8 1
  17    7   35 1
  18    7   36 1
  19    8    9 1
  20    8   37 1
  21    8   38 1
  22    9   10 am
  23    9   25 1
  24   10   11 2
  25   10   12 1
  26   12   23 1
  27   12   13 2
  28   13   14 1
  29   13   39 1
  30   14   15 1
  31   15   22 ar
  32   15   16 ar
  33   16   17 1
  34   16   18 ar
  35   18   19 1
  36   18   20 ar
  37   19   40 1
  38   19   41 1
  39   19   42 1
  40   20   21 ar
  41   20   43 1
  42   21   22 ar
  43   21   44 1
  44   22   23 1
  45   23   24 2
  46   25   26 1
  47   25   45 1
  48   25   46 1
  49   26   47 1
  50   26   48 1
  51   27   28 1

@<TRIPOS>MOLECULE
ZINC000077674926
  48   51    0    0    0
SMALL
USER_CHARGES
NO_NAME
@<TRIPOS>ATOM
    1 C1       -0.2391     1.6363    -0.0070 C.3    1 <0>      -0.0800
    2 C2       -0.2346     0.1300     0.0383 C.2    1 <0>      -0.0300
    3 C3       -1.3155    -0.6856     0.0036 C.2    1 <0>      -0.2400
    4 C4       -0.7648    -1.9859     0.0719 C.2    1 <0>       0.0200
    5 C5       -1.5225    -3.2886     0.0685 C.3    1 <0>       0.1400
    6 N6       -1.5889    -3.8128    -1.3022 N.3    1 <0>      -0.5300
    7 C7       -1.9560    -2.7550    -2.2532 C.3    1 <0>       0.0400
    8 C8       -1.8381    -3.2945    -3.6826 C.3    1 <0>       0.1200
    9 N9       -2.6353    -4.5263    -3.7844 N.am   1 <0>      -0.6100
   10 C10      -3.5388    -4.6859    -4.7716 C.2    1 <0>       0.6000
   11 O11      -3.7724    -3.7693    -5.5363 O.2    1 <0>      -0.5200
   12 C12      -4.2428    -5.9691    -4.9242 C.2    1 <0>      -0.3200
   13 C13      -5.3359    -6.2681    -4.1387 C.2    1 <0>       0.2100
   14 N14      -6.0022    -7.4257    -4.2494 N.pl3  1 <0>      -0.5800
   15 C15      -5.6539    -8.4055    -5.1497 C.ar   1 <0>       0.3800
   16 N16      -6.3502    -9.5337    -5.2169 N.ar   1 <0>      -0.5200
   17 C17      -6.0412   -10.4889    -6.0683 C.ar   1 <0>       0.2000
   18 C18      -6.8715   -11.7462    -6.0951 C.3    1 <0>      -0.1100
   19 C19      -4.9714   -10.3668    -6.9408 C.ar   1 <0>      -0.2000
   20 C20      -4.2075    -9.2137    -6.9184 C.ar   1 <0>       0.0200
   21 C21      -4.5551    -8.2155    -6.0062 C.ar   1 <0>      -0.2400
   22 C22      -3.7969    -6.9548    -5.9227 C.2    1 <0>       0.4400
   23 O23      -2.8402    -6.7392    -6.6459 O.2    1 <0>      -0.4700
   24 C24      -2.4199    -5.5794    -2.7805 C.3    1 <0>       0.1100
   25 C25      -2.5149    -4.9500    -1.3866 C.3    1 <0>       0.0400
   26 N26       0.5265    -1.8351     0.1377 N.2    1 <0>      -0.3400
   27 O27       0.8401    -0.6674     0.1149 O.3    1 <0>       0.1000
   28 H28       0.7862     2.0040     0.0329 H      1 <0>       0.0800
   29 H29      -0.7094     1.9706    -0.9317 H      1 <0>       0.0900
   30 H30      -0.7974     2.0237     0.8453 H      1 <0>       0.0900
   31 H31      -2.3570    -0.4070    -0.0613 H      1 <0>       0.1700
   32 H32      -1.0113    -4.0079     0.7082 H      1 <0>       0.1000
   33 H33      -2.5325    -3.1224     0.4432 H      1 <0>       0.0600
   34 H34      -2.9824    -2.4389    -2.0672 H      1 <0>       0.0400
   35 H35      -1.2850    -1.9051    -2.1286 H      1 <0>       0.0900
   36 H36      -2.2177    -2.5535    -4.3861 H      1 <0>       0.1000
   37 H37      -0.7941    -3.5144    -3.9060 H      1 <0>       0.0800
   38 H38      -5.6664    -5.5444    -3.4084 H      1 <0>       0.1800
   39 H39      -6.7638    -7.5795    -3.6686 H      1 <0>       0.4300
   40 H40      -7.6916   -11.6250    -6.8028 H      1 <0>       0.0900
   41 H41      -6.2485   -12.5866    -6.4014 H      1 <0>       0.0800
   42 H42      -7.2749   -11.9366    -5.1005 H      1 <0>       0.0800
   43 H43      -4.7364   -11.1637    -7.6309 H      1 <0>       0.1500
   44 H44      -3.3680    -9.0893    -7.5863 H      1 <0>       0.1500
   45 H45      -3.1842    -6.3491    -2.8876 H      1 <0>       0.0900
   46 H46      -1.4319    -6.0191    -2.9172 H      1 <0>       0.0800
   47 H47      -2.2493    -5.6920    -0.6336 H      1 <0>       0.0900
   48 H48      -3.5336    -4.6034    -1.2127 H      1 <0>       0.0400
@<TRIPOS>BOND
   1    1    2 1
   2    1   28 1
   3    1   29 1
   4    1   30 1
   5    2   27 1
   6    2    3 2
   7    3    4 1
   8    3   31 1
   9    4    5 1
  10    4   26 2
  11    5    6 1
  12    5   32 1
  13    5   33 1
  14    6   25 1
  15    6    7 1
  16    7    8 1
  17    7   34 1
  18    7   35 1
  19    8    9 1
  20    8   36 1
  21    8   37 1
  22    9   10 am
  23    9   24 1
  24   10   11 2
  25   10   12 1
  26   12   22 1
  27   12   13 2
  28   13   14 1
  29   13   38 1
  30   14   15 1
  31   14   39 1
  32   15   21 ar
  33   15   16 ar
  34   16   17 ar
  35   17   18 1
  36   17   19 ar
  37   18   40 1
  38   18   41 1
  39   18   42 1
  40   19   20 ar
  41   19   43 1
  42   20   21 ar
  43   20   44 1
  44   21   22 1
  45   22   23 2
  46   24   25 1
  47   24   45 1
  48   24   46 1
  49   25   47 1
  50   25   48 1
  51   26   27 1
@<TRIPOS>MOLECULE
ZINC000089736264
36    39    1     0     0
SMALL
USER_CHARGES
@<TRIPOS>ATOM
1      C1     -0.0366    1.5001   -0.0558 C.3      1 ZINC000089736264   -0.0600
2      C2     -0.0128   -0.0067   -0.0505 C.2      1 ZINC000089736264    0.1600
3      N3     -0.0118   -0.7814   -1.0978 N.2      1 ZINC000089736264   -0.2900
4      N4      0.0124   -2.0109   -0.7194 N.2      1 ZINC000089736264   -0.2700
5      C5      0.0278   -2.0624    0.5823 C.2      1 ZINC000089736264    0.1600
6      C6      0.0575   -3.3114    1.4251 C.3      1 ZINC000089736264    0.2400
7      H7     -0.1878   -3.0669    2.4586 H        1 ZINC000089736264    0.1100
8      C8      1.4572   -3.9576    1.3566 C.3      1 ZINC000089736264   -0.1200
9      C9      1.1379   -5.4755    1.3227 C.3      1 ZINC000089736264   -0.1300
10     C10    -0.1653   -5.5006    0.4856 C.3      1 ZINC000089736264    0.0900
11     N11    -0.9053   -4.2912    0.9011 N.am     1 ZINC000089736264   -0.6100
12     C12    -2.2387   -4.1169    0.8120 C.2      1 ZINC000089736264    0.6000
13     O13    -2.7543   -3.1206    1.2810 O.2      1 ZINC000089736264   -0.5400
14     C14    -3.0733   -5.1355    0.1450 C.ar     1 ZINC000089736264   -0.1600
15     C15    -4.4287   -5.2495    0.4680 C.ar     1 ZINC000089736264   -0.0600
16     C16    -5.2080   -6.1998   -0.1533 C.ar     1 ZINC000089736264   -0.1100
17     C17    -4.6481   -7.0461   -1.1016 C.ar     1 ZINC000089736264    0.0900
18     N18    -5.1640   -8.0771   -1.8779 N.pl3    1 ZINC000089736264   -0.5500
19     C19    -4.1593   -8.5601   -2.6347 C.2      1 ZINC000089736264    0.4000
20     S20    -4.2981   -9.8429   -3.7599 S.2      1 ZINC000089736264   -0.6800
21     O21    -3.0320   -7.8792   -2.3700 O.3      1 ZINC000089736264   -0.2300
22     C22    -3.2938   -6.9377   -1.4299 C.ar     1 ZINC000089736264   -0.0300
23     C23    -2.5102   -5.9817   -0.8129 C.ar     1 ZINC000089736264   -0.0500
24     O24     0.0173   -0.7975    1.0353 O.3      1 ZINC000089736264   -0.2200
25     H25     0.9850    1.8796   -0.0738 H        1 ZINC000089736264    0.1000
26     H26    -0.5704    1.8519   -0.9387 H        1 ZINC000089736264    0.1100
27     H27    -0.5417    1.8587    0.8410 H        1 ZINC000089736264    0.0900
28     H28     1.9787   -3.6528    0.4492 H        1 ZINC000089736264    0.0900
29     H29     2.0418   -3.7061    2.2415 H        1 ZINC000089736264    0.1000
30     H30     1.9328   -6.0310    0.8248 H        1 ZINC000089736264    0.1000
31     H31     0.9643   -5.8608    2.3274 H        1 ZINC000089736264    0.0800
32     H32     0.0666   -5.4580   -0.5787 H        1 ZINC000089736264    0.0800
33     H33    -0.7450   -6.3952    0.7129 H        1 ZINC000089736264    0.1000
34     H34    -4.8648   -4.5921    1.2055 H        1 ZINC000089736264    0.1300
35     H35    -6.2549   -6.2872    0.0973 H        1 ZINC000089736264    0.1300
36     H36    -1.4646   -5.8915   -1.0678 H        1 ZINC000089736264    0.1400
@<TRIPOS>BOND
1     1     2     1
2     1     25    1
3     1     26    1
4     1     27    1
5     2     24    1
6     2     3     2
7     3     4     1
8     4     5     2
9     5     6     1
10    5     24    1
11    6     7     1
12    6     11    1
13    6     8     1
14    8     9     1
15    8     28    1
16    8     29    1
17    9     10    1
18    9     30    1
19    9     31    1
20    10    11    1
21    10    32    1
22    10    33    1
23    11    12    am
24    12    13    2
25    12    14    1
26    14    23    ar
27    14    15    ar
28    15    16    ar
29    15    34    1
30    16    17    ar
31    16    35    1
32    17    22    ar
33    17    18    1
34    18    19    1
35    19    20    2
36    19    21    1
37    21    22    1
38    22    23    ar
39    23    36    1
@<TRIPOS>SUBSTRUCTURE
1   ZINC000089736264 1     RESIDUE    1   A     ZIN   1
@<TRIPOS>MOLECULE
ZINC000091416739
54    56    1     0     0
SMALL
USER_CHARGES
@<TRIPOS>ATOM
1      C1      0.0996    0.2465   -0.4493 C.3      1 ZINC000091416739   -0.0600
2      N2     -0.2798   -1.1494   -0.1933 N.4      1 ZINC000091416739   -0.3800
3      H3     -0.0097   -1.7201   -0.9803 H        1 ZINC000091416739    0.4300
4      C4     -1.7328   -1.2335   -0.0055 C.3      1 ZINC000091416739   -0.0300
5      C5     -2.1613   -0.2687    1.1051 C.3      1 ZINC000091416739    0.0900
6      N6     -1.3676   -0.5635    2.3080 N.am     1 ZINC000091416739   -0.6300
7      C7     -1.9631   -0.7415    3.5038 C.2      1 ZINC000091416739    0.5400
8      O8     -3.1619   -0.5931    3.6123 O.2      1 ZINC000091416739   -0.5100
9      C9     -1.1394   -1.1251    4.7061 C.3      1 ZINC000091416739   -0.1300
10     C10    -0.6255    0.1400    5.4371 C.3      1 ZINC000091416739   -0.1100
11     C11    -0.3688   -0.3764    6.8746 C.3      1 ZINC000091416739   -0.1300
12     C12    -1.5262   -1.3626    7.1346 C.3      1 ZINC000091416739   -0.1300
13     C13    -2.0162   -1.8387    5.7558 C.3      1 ZINC000091416739   -0.1100
14     C14     0.0928   -0.6590    2.1701 C.3      1 ZINC000091416739    0.0800
15     C15     0.4077   -1.6297    1.0198 C.3      1 ZINC000091416739    0.0500
16     C16     1.9086   -1.6169    0.7708 C.3      1 ZINC000091416739   -0.1300
17     C17     2.6797   -1.9230    2.0544 C.3      1 ZINC000091416739   -0.1400
18     C18     2.7805   -3.4262    2.2099 C.2      1 ZINC000091416739    0.5100
19     O19     3.8459   -3.9822    2.0463 O.2      1 ZINC000091416739   -0.5300
20     N20     1.6992   -4.1385    2.5268 N.am     1 ZINC000091416739   -0.5700
21     C21     1.8000   -5.5931    2.6695 C.3      1 ZINC000091416739    0.0400
22     C22     2.1360   -5.9356    4.0981 C.2      1 ZINC000091416739    0.4800
23     O23     2.2781   -5.0470    4.9208 O.co2    1 ZINC000091416739   -0.6900
24     O24     2.2657   -7.1012    4.4312 O.co2    1 ZINC000091416739   -0.6900
25     C25     0.4042   -3.4695    2.7345 C.3      1 ZINC000091416739    0.1200
26     C26    -0.1318   -3.0054    1.3810 C.3      1 ZINC000091416739   -0.1600
27     H27     1.1784    0.3097   -0.5912 H        1 ZINC000091416739    0.1300
28     H28    -0.4064    0.6018   -1.3470 H        1 ZINC000091416739    0.1300
29     H29    -0.1919    0.8639    0.4004 H        1 ZINC000091416739    0.1300
30     H30    -2.2354   -0.9643   -0.9345 H        1 ZINC000091416739    0.1400
31     H31    -2.0047   -2.2516    0.2729 H        1 ZINC000091416739    0.1400
32     H32    -1.9806    0.7586    0.7887 H        1 ZINC000091416739    0.0900
33     H33    -3.2207   -0.4056    1.3217 H        1 ZINC000091416739    0.1300
34     H34    -0.3059   -1.7615    4.4090 H        1 ZINC000091416739    0.1000
35     H35     0.2990    0.4988    4.9847 H        1 ZINC000091416739    0.0700
36     H36    -1.3854    0.9215    5.4373 H        1 ZINC000091416739    0.0700
37     H37     0.5905   -0.8910    6.9295 H        1 ZINC000091416739    0.0800
38     H38    -0.4022    0.4474    7.5876 H        1 ZINC000091416739    0.0700
39     H39    -1.1695   -2.2117    7.7177 H        1 ZINC000091416739    0.0700
40     H40    -2.3344   -0.8585    7.6645 H        1 ZINC000091416739    0.0700
41     H41    -3.0622   -1.5656    5.6166 H        1 ZINC000091416739    0.0800
42     H42    -1.8972   -2.9187    5.6697 H        1 ZINC000091416739    0.0700
43     H43     0.5054    0.3243    1.9446 H        1 ZINC000091416739    0.1000
44     H44     0.5253   -1.0354    3.0972 H        1 ZINC000091416739    0.1400
45     H45     2.1531   -2.3671    0.0188 H        1 ZINC000091416739    0.1000
46     H46     2.2019   -0.6337    0.4028 H        1 ZINC000091416739    0.1000
47     H47     3.6796   -1.4936    1.9919 H        1 ZINC000091416739    0.1200
48     H48     2.1502   -1.5014    2.9088 H        1 ZINC000091416739    0.0900
49     H49     0.8484   -6.0514    2.4002 H        1 ZINC000091416739    0.0700
50     H50     2.5835   -5.9693    2.0118 H        1 ZINC000091416739    0.0900
51     H51    -0.2999   -4.1682    3.1862 H        1 ZINC000091416739    0.1000
52     H52     0.5385   -2.6083    3.3891 H        1 ZINC000091416739    0.0800
53     H53    -1.2202   -2.9628    1.4230 H        1 ZINC000091416739    0.1000
54     H54     0.1677   -3.7195    0.6139 H        1 ZINC000091416739    0.1000
@<TRIPOS>BOND
1     1     2     1
2     1     27    1
3     1     28    1
4     1     29    1
5     2     3     1
6     2     15    1
7     2     4     1
8     4     5     1
9     4     30    1
10    4     31    1
11    5     6     1
12    5     32    1
13    5     33    1
14    6     7     am
15    6     14    1
16    7     8     2
17    7     9     1
18    9     13    1
19    9     10    1
20    9     34    1
21    10    11    1
22    10    35    1
23    10    36    1
24    11    12    1
25    11    37    1
26    11    38    1
27    12    13    1
28    12    39    1
29    12    40    1
30    13    41    1
31    13    42    1
32    14    15    1
33    14    43    1
34    14    44    1
35    15    26    1
36    15    16    1
37    16    17    1
38    16    45    1
39    16    46    1
40    17    18    1
41    17    47    1
42    17    48    1
43    18    19    2
44    18    20    am
45    20    21    1
46    20    25    1
47    21    22    1
48    21    49    1
49    21    50    1
50    22    23    ar
51    22    24    ar
52    25    26    1
53    25    51    1
54    25    52    1
55    26    53    1
56    26    54    1
@<TRIPOS>SUBSTRUCTURE
1   ZINC000091416739 1     RESIDUE    1   A     ZIN   1

@<TRIPOS>MOLECULE
ZINC000091416739
53    55    1     0     0
SMALL
USER_CHARGES
@<TRIPOS>ATOM
1      C1      0.1835    0.3830   -0.6394 C.3      1 ZINC000091416739    0.0300
2      N2     -0.1248   -1.0270   -0.4005 N.3      1 ZINC000091416739   -0.5500
3      C3     -1.5706   -1.2676   -0.3902 C.3      1 ZINC000091416739    0.0500
4      C4     -2.2036   -0.6302    0.8491 C.3      1 ZINC000091416739    0.0800
5      N5     -1.4685   -1.0737    2.0424 N.am     1 ZINC000091416739   -0.6100
6      C6     -2.1299   -1.5622    3.1128 C.2      1 ZINC000091416739    0.5300
7      O7     -3.3425   -1.5498    3.1339 O.2      1 ZINC000091416739   -0.5400
8      C8     -1.3616   -2.1231    4.2817 C.3      1 ZINC000091416739   -0.1200
9      C9     -1.0150   -1.0007    5.2913 C.3      1 ZINC000091416739   -0.1100
10     C10    -0.8147   -1.7809    6.6143 C.3      1 ZINC000091416739   -0.1200
11     C11    -1.8950   -2.8813    6.5718 C.3      1 ZINC000091416739   -0.1200
12     C12    -2.2427   -3.0989    5.0887 C.3      1 ZINC000091416739   -0.1100
13     C13    -0.0047   -0.9667    2.0509 C.3      1 ZINC000091416739    0.0800
14     C14     0.5520   -1.6028    0.7613 C.3      1 ZINC000091416739    0.1300
15     C15     2.0495   -1.3220    0.7140 C.3      1 ZINC000091416739   -0.1000
16     C16     2.6966   -1.9134   -0.5389 C.3      1 ZINC000091416739   -0.1300
17     C17     3.0374   -3.3672   -0.2647 C.2      1 ZINC000091416739    0.5100
18     O18     4.1814   -3.6944   -0.0444 O.2      1 ZINC000091416739   -0.5600
19     N19     2.0609   -4.2744   -0.2694 N.am     1 ZINC000091416739   -0.5800
20     C20     2.3695   -5.6945   -0.1028 C.3      1 ZINC000091416739    0.0400
21     C21     2.3422   -6.0460    1.3623 C.2      1 ZINC000091416739    0.4900
22     O22     2.0881   -5.1880    2.1904 O.co2    1 ZINC000091416739   -0.6800
23     O23     2.5743   -7.1884    1.7196 O.co2    1 ZINC000091416739   -0.7000
24     C24     0.6641   -3.8332   -0.4328 C.3      1 ZINC000091416739    0.1300
25     C25     0.2417   -3.0961    0.8340 C.3      1 ZINC000091416739   -0.1400
26     H26     1.2546    0.4977   -0.8053 H        1 ZINC000091416739    0.0700
27     H27    -0.3596    0.7298   -1.5186 H        1 ZINC000091416739    0.0700
28     H28    -0.1150    0.9721    0.2278 H        1 ZINC000091416739    0.0200
29     H29    -2.0140   -0.8243   -1.2865 H        1 ZINC000091416739    0.0800
30     H30    -1.7699   -2.3386   -0.3953 H        1 ZINC000091416739    0.0800
31     H31    -2.1753    0.4551    0.7763 H        1 ZINC000091416739    0.0600
32     H32    -3.2456   -0.9533    0.9290 H        1 ZINC000091416739    0.0900
33     H33    -0.4559   -2.6224    3.9375 H        1 ZINC000091416739    0.1100
34     H34    -0.0967   -0.4902    5.0011 H        1 ZINC000091416739    0.0700
35     H35    -1.8396   -0.2935    5.3809 H        1 ZINC000091416739    0.0700
36     H36     0.1804   -2.2243    6.6488 H        1 ZINC000091416739    0.0700
37     H37    -0.9713   -1.1255    7.4711 H        1 ZINC000091416739    0.0700
38     H38    -1.5057   -3.8035    7.0032 H        1 ZINC000091416739    0.0700
39     H39    -2.7801   -2.5571    7.1191 H        1 ZINC000091416739    0.0600
40     H40    -3.2966   -2.8802    4.9163 H        1 ZINC000091416739    0.0800
41     H41    -2.0222   -4.1267    4.8004 H        1 ZINC000091416739    0.0700
42     H42     0.2946    0.0773    2.1122 H        1 ZINC000091416739    0.0700
43     H43     0.3937   -1.5052    2.9143 H        1 ZINC000091416739    0.1000
44     H44     2.2463   -0.2581    0.7691 H        1 ZINC000091416739    0.0700
45     H45     2.5097   -1.7958    1.5911 H        1 ZINC000091416739    0.0800
46     H46     2.0123   -1.8493   -1.3809 H        1 ZINC000091416739    0.1000
47     H47     3.6124   -1.3664   -0.7672 H        1 ZINC000091416739    0.0900
48     H48     1.6285   -6.2921   -0.6337 H        1 ZINC000091416739    0.0700
49     H49     3.3603   -5.9009   -0.5076 H        1 ZINC000091416739    0.0800
50     H50     0.5827   -3.1748   -1.2950 H        1 ZINC000091416739    0.0800
51     H51     0.0249   -4.7054   -0.5796 H        1 ZINC000091416739    0.0700
52     H52     0.7771   -3.5186    1.6874 H        1 ZINC000091416739    0.1200
53     H53    -0.8271   -3.2326    0.9908 H        1 ZINC000091416739    0.0600
@<TRIPOS>BOND
1     1     2     1
2     1     26    1
3     1     27    1
4     1     28    1
5     2     14    1
6     2     3     1
7     3     4     1
8     3     29    1
9     3     30    1
10    4     5     1
11    4     31    1
12    4     32    1
13    5     6     am
14    5     13    1
15    6     7     2
16    6     8     1
17    8     12    1
18    8     9     1
19    8     33    1
20    9     10    1
21    9     34    1
22    9     35    1
23    10    11    1
24    10    36    1
25    10    37    1
26    11    12    1
27    11    38    1
28    11    39    1
29    12    40    1
30    12    41    1
31    13    14    1
32    13    42    1
33    13    43    1
34    14    25    1
35    14    15    1
36    15    16    1
37    15    44    1
38    15    45    1
39    16    17    1
40    16    46    1
41    16    47    1
42    17    18    2
43    17    19    am
44    19    20    1
45    19    24    1
46    20    21    1
47    20    48    1
48    20    49    1
49    21    22    ar
50    21    23    ar
51    24    25    1
52    24    50    1
53    24    51    1
54    25    52    1
55    25    53    1
@<TRIPOS>SUBSTRUCTURE
1   ZINC000091416739 1     RESIDUE    1   A     ZIN   1

@<TRIPOS>MOLECULE
ZINC000091416739
54    56    1     0     0
SMALL
USER_CHARGES
@<TRIPOS>ATOM
1      C1      1.5656    1.5470   -0.5740 C.3      1 ZINC000091416739   -0.0800
2      N2      1.1971    0.1440   -0.3826 N.4      1 ZINC000091416739   -0.3700
3      H3      0.1486    0.2359   -0.1610 H        1 ZINC000091416739    0.4300
4      C4      1.2347   -0.4551   -1.7512 C.3      1 ZINC000091416739    0.0000
5      C5      0.3809   -1.7071   -1.7054 C.3      1 ZINC000091416739    0.0800
6      N6      0.7589   -2.5267   -0.4435 N.am     1 ZINC000091416739   -0.6300
7      C7      0.9620   -3.8747   -0.5833 C.2      1 ZINC000091416739    0.5400
8      O8      0.7554   -4.4115   -1.6510 O.2      1 ZINC000091416739   -0.5100
9      C9      1.4420   -4.6901    0.5897 C.3      1 ZINC000091416739   -0.1200
10     C10     0.2393   -5.2488    1.3899 C.3      1 ZINC000091416739   -0.1100
11     C11     0.8485   -6.4782    2.1086 C.3      1 ZINC000091416739   -0.1200
12     C12     1.8124   -7.0854    1.0684 C.3      1 ZINC000091416739   -0.1200
13     C13     2.1898   -5.9484    0.1026 C.3      1 ZINC000091416739   -0.1100
14     C14     0.8956   -1.8067    0.7596 C.3      1 ZINC000091416739    0.0700
15     C15     1.8746   -0.5978    0.5983 C.3      1 ZINC000091416739    0.0600
16     C16     1.8876    0.0411    2.0127 C.3      1 ZINC000091416739   -0.1100
17     C17     2.7379    1.3114    2.1913 C.3      1 ZINC000091416739   -0.1500
18     C18     4.1341    0.8139    2.5268 C.2      1 ZINC000091416739    0.5100
19     O19     4.5895    0.9403    3.5833 O.2      1 ZINC000091416739   -0.4900
20     N20     4.8506    0.0570    1.6107 N.am     1 ZINC000091416739   -0.6100
21     C21     6.1118   -0.4673    2.0143 C.3      1 ZINC000091416739    0.0500
22     C22     5.9163   -1.8295    2.6285 C.2      1 ZINC000091416739    0.4800
23     O23     4.7970   -2.3057    2.7118 O.co2    1 ZINC000091416739   -0.6900
24     O24     6.8774   -2.4553    3.0421 O.co2    1 ZINC000091416739   -0.6900
25     C25     4.2751   -0.0734    0.2709 C.3      1 ZINC000091416739    0.1100
26     C26     3.2385   -1.1494    0.2148 C.3      1 ZINC000091416739   -0.1200
27     H27     2.6274    1.6147   -0.8110 H        1 ZINC000091416739    0.1200
28     H28     0.9828    1.9672   -1.3937 H        1 ZINC000091416739    0.1300
29     H29     1.3611    2.1044    0.3402 H        1 ZINC000091416739    0.1300
30     H30     0.8304    0.1895   -2.4672 H        1 ZINC000091416739    0.1400
31     H31     2.2597   -0.6804   -1.9789 H        1 ZINC000091416739    0.1300
32     H32    -0.6868   -1.4528   -1.6152 H        1 ZINC000091416739    0.1000
33     H33     0.5432   -2.2696   -2.6025 H        1 ZINC000091416739    0.1300
34     H34     2.0849   -4.0894    1.2330 H        1 ZINC000091416739    0.1100
35     H35    -0.1173   -4.5158    2.1135 H        1 ZINC000091416739    0.0700
36     H36    -0.5638   -5.5526    0.7184 H        1 ZINC000091416739    0.0700
37     H37     1.3948   -6.1675    2.9992 H        1 ZINC000091416739    0.0700
38     H38     0.0682   -7.1934    2.3687 H        1 ZINC000091416739    0.0700
39     H39     2.7054   -7.4659    1.5642 H        1 ZINC000091416739    0.0700
40     H40     1.3162   -7.8887    0.5237 H        1 ZINC000091416739    0.0700
41     H41     1.8767   -6.2000   -0.9107 H        1 ZINC000091416739    0.0800
42     H42     3.2659   -5.7772    0.1298 H        1 ZINC000091416739    0.0700
43     H43    -0.0634   -1.4712    1.1369 H        1 ZINC000091416739    0.0900
44     H44     1.3486   -2.4508    1.5708 H        1 ZINC000091416739    0.1300
45     H45     0.8354    0.3749    2.2669 H        1 ZINC000091416739    0.0800
46     H46     2.1555   -0.7202    2.7379 H        1 ZINC000091416739    0.1300
47     H47     2.8501    1.9860    1.2892 H        1 ZINC000091416739    0.1000
48     H48     2.3897    1.8682    2.9622 H        1 ZINC000091416739    0.1000
49     H49     6.7653   -0.5507    1.1459 H        1 ZINC000091416739    0.0700
50     H50     6.5650    0.2002    2.7473 H        1 ZINC000091416739    0.0800
51     H51     4.0144    0.8842   -0.1389 H        1 ZINC000091416739    0.0700
52     H52     5.1412   -0.3642   -0.3682 H        1 ZINC000091416739    0.0700
53     H53     3.5075   -1.9257    0.8447 H        1 ZINC000091416739    0.1400
54     H54     3.1621   -1.6069   -0.8027 H        1 ZINC000091416739    0.0800
@<TRIPOS>BOND
1     1     2     1
2     1     27    1
3     1     28    1
4     1     29    1
5     2     3     1
6     2     15    1
7     2     4     1
8     4     5     1
9     4     30    1
10    4     31    1
11    5     6     1
12    5     32    1
13    5     33    1
14    6     7     am
15    6     14    1
16    7     8     2
17    7     9     1
18    9     13    1
19    9     10    1
20    9     34    1
21    10    11    1
22    10    35    1
23    10    36    1
24    11    12    1
25    11    37    1
26    11    38    1
27    12    13    1
28    12    39    1
29    12    40    1
30    13    41    1
31    13    42    1
32    14    15    1
33    14    43    1
34    14    44    1
35    15    26    1
36    15    16    1
37    16    17    1
38    16    45    1
39    16    46    1
40    17    18    1
41    17    47    1
42    17    48    1
43    18    19    2
44    18    20    am
45    20    21    1
46    20    25    1
47    21    22    1
48    21    49    1
49    21    50    1
50    22    23    ar
51    22    24    ar
52    25    26    1
53    25    51    1
54    25    52    1
55    26    53    1
56    26    54    1
@<TRIPOS>SUBSTRUCTURE
1   ZINC000091416739 1     RESIDUE    1   A     ZIN   1
@<TRIPOS>MOLECULE
ZINC000091847766
42    45    1     0     0
SMALL
USER_CHARGES
@<TRIPOS>ATOM
1      C1      1.5432   -0.0928   -1.8868 C.3      1 ZINC000091847766   -0.0800
2      C2      0.6741   -0.6907   -0.8106 C.2      1 ZINC000091847766    0.0300
3      N3     -0.2123   -1.6019   -1.0074 N.2      1 ZINC000091847766   -0.4600
4      C4     -0.8826   -2.0041    0.0761 C.2      1 ZINC000091847766    0.0500
5      C5     -1.9293   -3.0356    0.0376 C.2      1 ZINC000091847766    0.5000
6      N6     -2.5465   -3.3701    1.1584 N.2      1 ZINC000091847766   -0.5300
7      C7     -3.4964   -4.2924    1.1785 C.2      1 ZINC000091847766    0.2200
8      C8     -3.8646   -4.9343   -0.0043 C.2      1 ZINC000091847766   -0.3100
9      C9     -4.9157   -5.9600   -0.0067 C.2      1 ZINC000091847766    0.6100
10     O10    -4.6181   -7.1359   -0.1033 O.2      1 ZINC000091847766   -0.5100
11     N11    -6.2099   -5.5989    0.0982 N.am     1 ZINC000091847766   -0.6100
12     C12    -6.7177   -4.2148    0.1082 C.3      1 ZINC000091847766    0.1000
13     C13    -8.1850   -4.3272   -0.3755 C.3      1 ZINC000091847766   -0.1300
14     C14    -8.6291   -5.6597    0.2838 C.3      1 ZINC000091847766   -0.1200
15     C15    -7.3498   -6.5200    0.2151 C.3      1 ZINC000091847766    0.2000
16     H16    -7.3917   -7.1780   -0.6529 H        1 ZINC000091847766    0.1100
17     C17    -7.2150   -7.3392    1.4729 C.2      1 ZINC000091847766    0.0700
18     N18    -6.8531   -6.8796    2.6333 N.2      1 ZINC000091847766   -0.2600
19     O19    -6.8534   -7.9702    3.5408 O.3      1 ZINC000091847766    0.0300
20     N20    -7.2508   -9.1105    2.7961 N.2      1 ZINC000091847766   -0.2700
21     C21    -7.4675   -8.7216    1.5752 C.2      1 ZINC000091847766    0.0900
22     C22    -7.9094   -9.6124    0.4428 C.3      1 ZINC000091847766   -0.1000
23     C23    -3.1989   -4.5721   -1.2076 C.2      1 ZINC000091847766    0.5500
24     O24    -3.4873   -5.1059   -2.2641 O.2      1 ZINC000091847766   -0.5100
25     N25    -2.2435   -3.6194   -1.1536 N.am     1 ZINC000091847766   -0.6100
26     C26    -0.5065   -1.3723    1.2133 C.2      1 ZINC000091847766   -0.2100
27     S27     0.7348   -0.2578    0.8401 S.3      1 ZINC000091847766    0.2500
28     H28     2.2072    0.6509   -1.4462 H        1 ZINC000091847766    0.0900
29     H29     2.1369   -0.8790   -2.3531 H        1 ZINC000091847766    0.0900
30     H30     0.9142    0.3823   -2.6396 H        1 ZINC000091847766    0.0900
31     H31    -3.9844   -4.5472    2.1076 H        1 ZINC000091847766    0.1800
32     H32    -6.6812   -3.8047    1.1174 H        1 ZINC000091847766    0.0800
33     H33    -6.1393   -3.5937   -0.5758 H        1 ZINC000091847766    0.0800
34     H34    -8.7822   -3.4921   -0.0092 H        1 ZINC000091847766    0.0900
35     H35    -8.2342   -4.3936   -1.4623 H        1 ZINC000091847766    0.0900
36     H36    -8.9331   -5.4960    1.3176 H        1 ZINC000091847766    0.0900
37     H37    -9.4337   -6.1231   -0.2871 H        1 ZINC000091847766    0.1000
38     H38    -8.9985   -9.6383    0.4047 H        1 ZINC000091847766    0.1000
39     H39    -7.5221   -9.2226   -0.4985 H        1 ZINC000091847766    0.0900
40     H40    -7.5274  -10.6205    0.6033 H        1 ZINC000091847766    0.0900
41     H41    -1.7758   -3.3554   -1.9614 H        1 ZINC000091847766    0.4300
42     H42    -0.9198   -1.5471    2.1957 H        1 ZINC000091847766    0.2000
@<TRIPOS>BOND
1     1     2     1
2     1     28    1
3     1     29    1
4     1     30    1
5     2     27    1
6     2     3     2
7     3     4     1
8     4     5     1
9     4     26    2
10    5     25    1
11    5     6     2
12    6     7     1
13    7     8     2
14    7     31    1
15    8     9     1
16    8     23    1
17    9     10    2
18    9     11    am
19    11    15    1
20    11    12    1
21    12    13    1
22    12    32    1
23    12    33    1
24    13    14    1
25    13    34    1
26    13    35    1
27    14    15    1
28    14    36    1
29    14    37    1
30    15    16    1
31    15    17    1
32    17    21    1
33    17    18    2
34    18    19    1
35    19    20    1
36    20    21    2
37    21    22    1
38    22    38    1
39    22    39    1
40    22    40    1
41    23    24    2
42    23    25    am
43    25    41    1
44    26    27    1
45    26    42    1
@<TRIPOS>SUBSTRUCTURE
1   ZINC000091847766 1     RESIDUE    1   A     ZIN   1

@<TRIPOS>MOLECULE
ZINC000091847766
41    44    1     0     0
SMALL
USER_CHARGES
@<TRIPOS>ATOM
1      C1      1.5432   -0.0928   -1.8868 C.3      1 ZINC000091847766   -0.0700
2      C2      0.6741   -0.6907   -0.8106 C.2      1 ZINC000091847766    0.0200
3      N3     -0.2123   -1.6019   -1.0074 N.2      1 ZINC000091847766   -0.4200
4      C4     -0.8826   -2.0041    0.0761 C.2      1 ZINC000091847766    0.1300
5      C5     -1.9293   -3.0356    0.0376 C.2      1 ZINC000091847766    0.4100
6      N6     -2.5465   -3.3701    1.1584 N.2      1 ZINC000091847766   -0.6100
7      C7     -3.4964   -4.2924    1.1785 C.2      1 ZINC000091847766    0.2000
8      C8     -3.8646   -4.9343   -0.0043 C.2      1 ZINC000091847766   -0.4000
9      C9     -4.9157   -5.9600   -0.0067 C.2      1 ZINC000091847766    0.6300
10     O10    -4.6181   -7.1359   -0.1033 O.2      1 ZINC000091847766   -0.5400
11     N11    -6.2099   -5.5989    0.0982 N.am     1 ZINC000091847766   -0.6100
12     C12    -6.7177   -4.2148    0.1082 C.3      1 ZINC000091847766    0.1100
13     C13    -8.1850   -4.3272   -0.3755 C.3      1 ZINC000091847766   -0.1300
14     C14    -8.6291   -5.6597    0.2838 C.3      1 ZINC000091847766   -0.1200
15     C15    -7.3498   -6.5200    0.2151 C.3      1 ZINC000091847766    0.2000
16     H16    -7.3917   -7.1780   -0.6529 H        1 ZINC000091847766    0.1100
17     C17    -7.2150   -7.3392    1.4729 C.2      1 ZINC000091847766    0.0700
18     N18    -6.8531   -6.8796    2.6333 N.2      1 ZINC000091847766   -0.2600
19     O19    -6.8534   -7.9702    3.5408 O.3      1 ZINC000091847766    0.0200
20     N20    -7.2508   -9.1105    2.7961 N.2      1 ZINC000091847766   -0.2800
21     C21    -7.4675   -8.7216    1.5752 C.2      1 ZINC000091847766    0.0900
22     C22    -7.9094   -9.6124    0.4428 C.3      1 ZINC000091847766   -0.0900
23     C23    -3.1989   -4.5721   -1.2076 C.2      1 ZINC000091847766    0.5200
24     O24    -3.4873   -5.1059   -2.2641 O.2      1 ZINC000091847766   -0.6000
25     N25    -2.2435   -3.6194   -1.1536 N.pl3    1 ZINC000091847766   -0.6000
26     C26    -0.5065   -1.3723    1.2133 C.2      1 ZINC000091847766   -0.2400
27     S27     0.7348   -0.2578    0.8401 S.3      1 ZINC000091847766    0.1400
28     H28     2.2072    0.6509   -1.4462 H        1 ZINC000091847766    0.0700
29     H29     2.1369   -0.8790   -2.3531 H        1 ZINC000091847766    0.0800
30     H30     0.9142    0.3823   -2.6396 H        1 ZINC000091847766    0.0800
31     H31    -3.9844   -4.5472    2.1076 H        1 ZINC000091847766    0.1300
32     H32    -6.6812   -3.8047    1.1174 H        1 ZINC000091847766    0.0700
33     H33    -6.1393   -3.5937   -0.5758 H        1 ZINC000091847766    0.0800
34     H34    -8.7822   -3.4921   -0.0092 H        1 ZINC000091847766    0.0900
35     H35    -8.2342   -4.3936   -1.4623 H        1 ZINC000091847766    0.0800
36     H36    -8.9331   -5.4960    1.3176 H        1 ZINC000091847766    0.0800
37     H37    -9.4337   -6.1231   -0.2871 H        1 ZINC000091847766    0.0900
38     H38    -8.9985   -9.6383    0.4047 H        1 ZINC000091847766    0.1000
39     H39    -7.5221   -9.2226   -0.4985 H        1 ZINC000091847766    0.1000
40     H40    -7.5274  -10.6205    0.6033 H        1 ZINC000091847766    0.0900
41     H41    -0.9198   -1.5471    2.1957 H        1 ZINC000091847766    0.1900
@<TRIPOS>BOND
1     1     2     1
2     1     28    1
3     1     29    1
4     1     30    1
5     2     27    1
6     2     3     2
7     3     4     1
8     4     5     1
9     4     26    2
10    5     25    1
11    5     6     2
12    6     7     1
13    7     8     2
14    7     31    1
15    8     9     1
16    8     23    1
17    9     10    2
18    9     11    am
19    11    15    1
20    11    12    1
21    12    13    1
22    12    32    1
23    12    33    1
24    13    14    1
25    13    34    1
26    13    35    1
27    14    15    1
28    14    36    1
29    14    37    1
30    15    16    1
31    15    17    1
32    17    21    1
33    17    18    2
34    18    19    1
35    19    20    1
36    20    21    2
37    21    22    1
38    22    38    1
39    22    39    1
40    22    40    1
41    23    24    2
42    23    25    1
43    26    27    1
44    26    41    1
@<TRIPOS>SUBSTRUCTURE
1   ZINC000091847766 1     RESIDUE    1   A     ZIN   1
@<TRIPOS>MOLECULE
ZINC000092917480
42    43    1     0     0
SMALL
USER_CHARGES
@<TRIPOS>ATOM
1      C1     -0.4487    1.1099    0.0034 C.3      1 ZINC000092917480   -0.1500
2      C2      0.4645   -0.0708   -0.3325 C.3      1 ZINC000092917480    0.1600
3      H3      1.1855    0.2237   -1.0952 H        1 ZINC000092917480    0.0700
4      C4     -0.3793   -1.2594   -0.8392 C.3      1 ZINC000092917480   -0.1700
5      H5      0.1531   -1.8065   -1.6172 H        1 ZINC000092917480    0.0700
6      C6     -1.7181   -0.7861   -1.3438 C.2      1 ZINC000092917480    0.5100
7      O7     -1.8766   -0.5598   -2.5313 O.co2    1 ZINC000092917480   -0.7000
8      O8     -2.6427   -0.6295   -0.5647 O.co2    1 ZINC000092917480   -0.6900
9      C9     -0.5453   -2.1343    0.4314 C.3      1 ZINC000092917480   -0.1100
10     C10     0.8219   -1.9300    1.1305 C.3      1 ZINC000092917480    0.0900
11     N11     1.1707   -0.5169    0.8774 N.am     1 ZINC000092917480   -0.5800
12     C12     1.9962    0.2357    1.6315 C.2      1 ZINC000092917480    0.5400
13     O13     2.1416    1.4134    1.3809 O.2      1 ZINC000092917480   -0.5600
14     C14     2.7386   -0.3862    2.7861 C.3      1 ZINC000092917480    0.1400
15     H15     2.5860   -1.4655    2.7797 H        1 ZINC000092917480    0.1000
16     C16     2.2206    0.1979    4.1041 C.3      1 ZINC000092917480   -0.1200
17     C17     3.0705   -0.3320    5.2613 C.3      1 ZINC000092917480   -0.1100
18     C18     4.5233    0.1114    5.0742 C.3      1 ZINC000092917480   -0.1400
19     C19     5.0673   -0.4737    3.7672 C.3      1 ZINC000092917480    0.1200
20     N20     4.1728   -0.0909    2.6658 N.am     1 ZINC000092917480   -0.9900
21     S21     4.7692    0.6645    1.3182 S.o2     1 ZINC000092917480    2.6100
22     C22     4.5852    2.4341    1.6725 C.3      1 ZINC000092917480   -0.6700
23     O23     6.1428    0.3015    1.2920 O.2      1 ZINC000092917480   -0.9700
24     O24     3.8872    0.2702    0.2762 O.2      1 ZINC000092917480   -0.9400
25     H25     0.1431    1.9141    0.4406 H        1 ZINC000092917480    0.0600
26     H26    -0.9307    1.4669   -0.9067 H        1 ZINC000092917480    0.0600
27     H27    -1.2091    0.7899    0.7158 H        1 ZINC000092917480    0.0700
28     H28    -1.3612   -1.7677    1.0543 H        1 ZINC000092917480    0.0900
29     H29    -0.6969   -3.1810    0.1680 H        1 ZINC000092917480    0.0700
30     H30     0.7316   -2.1128    2.2012 H        1 ZINC000092917480    0.0700
31     H31     1.5731   -2.5886    0.6944 H        1 ZINC000092917480    0.0700
32     H32     2.2880    1.2853    4.0715 H        1 ZINC000092917480    0.0800
33     H33     1.1819   -0.0985    4.2501 H        1 ZINC000092917480    0.0800
34     H34     2.6887    0.0627    6.2028 H        1 ZINC000092917480    0.0700
35     H35     3.0225   -1.4208    5.2781 H        1 ZINC000092917480    0.0700
36     H36     4.5690    1.1997    5.0325 H        1 ZINC000092917480    0.0700
37     H37     5.1235   -0.2465    5.9107 H        1 ZINC000092917480    0.0800
38     H38     6.0669   -0.0816    3.5795 H        1 ZINC000092917480    0.0900
39     H39     5.1070   -1.5604    3.8419 H        1 ZINC000092917480    0.0700
40     H40     5.1552    2.6869    2.5665 H        1 ZINC000092917480    0.1100
41     H41     4.9574    3.0143    0.8281 H        1 ZINC000092917480    0.1200
42     H42     3.5324    2.6644    1.8357 H        1 ZINC000092917480    0.1600
@<TRIPOS>BOND
1     1     2     1
2     1     25    1
3     1     26    1
4     1     27    1
5     2     3     1
6     2     11    1
7     2     4     1
8     4     5     1
9     4     6     1
10    4     9     1
11    6     7     ar
12    6     8     ar
13    9     10    1
14    9     28    1
15    9     29    1
16    10    11    1
17    10    30    1
18    10    31    1
19    11    12    am
20    12    13    2
21    12    14    1
22    14    15    1
23    14    20    1
24    14    16    1
25    16    17    1
26    16    32    1
27    16    33    1
28    17    18    1
29    17    34    1
30    17    35    1
31    18    19    1
32    18    36    1
33    18    37    1
34    19    20    1
35    19    38    1
36    19    39    1
37    20    21    am
38    21    22    1
39    21    23    2
40    21    24    2
41    22    40    1
42    22    41    1
43    22    42    1
@<TRIPOS>SUBSTRUCTURE
1   ZINC000092917480 1     RESIDUE    1   A     ZIN   1
@<TRIPOS>MOLECULE
ZINC000095367027
  50   53    0    0    0
SMALL
USER_CHARGES
NO_NAME
@<TRIPOS>ATOM
    1 C1        1.5846    -1.1491     2.3192 C.3    1 <0>       0.0600
    2 N2        0.7663    -1.2488     1.1081 N.am   1 <0>      -0.5300
    3 C3       -0.3839    -1.9707     1.1418 C.2    1 <0>       0.2100
    4 C4       -1.1567    -2.0653     0.0010 C.2    1 <0>      -0.3100
    5 C5       -2.4087    -2.8369    -0.0028 C.2    1 <0>       0.6000
    6 O6       -3.4771    -2.2631     0.0931 O.2    1 <0>      -0.5100
    7 N7       -2.3725    -4.1797    -0.1124 N.am   1 <0>      -0.6000
    8 C8       -3.6227    -4.9348    -0.2272 C.3    1 <0>       0.1000
    9 C9       -3.6422    -5.6941    -1.5535 C.3    1 <0>       0.1300
   10 H10      -4.6793    -5.8802    -1.8325 H      1 <0>       0.1000
   11 C11      -2.9826    -4.8854    -2.6538 C.3    1 <0>      -0.1200
   12 C12      -1.4679    -4.8689    -2.5727 C.3    1 <0>      -0.1100
   13 C13      -0.9190    -5.6763    -1.4095 C.3    1 <0>      -0.1300
   14 H14       0.1440    -5.8538    -1.5728 H      1 <0>       0.1100
   15 C15      -1.0832    -4.8745    -0.1221 C.3    1 <0>       0.1200
   16 C16      -1.6291    -7.0073    -1.3141 C.2    1 <0>       0.5300
   17 O17      -1.0134    -8.0430    -1.1757 O.2    1 <0>      -0.5300
   18 N18      -2.9607    -6.9851    -1.3960 N.am   1 <0>      -0.6000
   19 C19      -3.7470    -8.2188    -1.3190 C.3    1 <0>       0.1200
   20 C20      -4.1064    -8.5042     0.1405 C.3    1 <0>      -0.1200
   21 C21      -5.4061    -7.8223     0.5996 C.3    1 <0>      -0.1400
   22 C22      -5.7229    -9.1179     1.3650 C.3    1 <0>      -0.1400
   23 C23      -4.8303    -9.8454     0.3458 C.3    1 <0>      -0.1300
   24 C24      -0.6915    -1.3714    -1.2107 C.2    1 <0>       0.5700
   25 O25      -1.3349    -1.4223    -2.2422 O.2    1 <0>      -0.4900
   26 N26       0.4644    -0.6770    -1.1522 N.am   1 <0>      -0.6500
   27 C27       1.1674    -0.6203    -0.0081 C.2    1 <0>       0.7000
   28 O28       2.2048     0.0129     0.0140 O.2    1 <0>      -0.5300
   29 H29       2.4609    -0.5336     2.1159 H      1 <0>       0.1100
   30 H30       0.9982    -0.6940     3.1174 H      1 <0>       0.0900
   31 H31       1.9034    -2.1454     2.6254 H      1 <0>       0.0900
   32 H32      -0.6908    -2.4658     2.0512 H      1 <0>       0.1900
   33 H33      -3.6960    -5.6433     0.5978 H      1 <0>       0.0800
   34 H34      -4.4671    -4.2465    -0.1905 H      1 <0>       0.1100
   35 H35      -3.2755    -5.3033    -3.6169 H      1 <0>       0.0700
   36 H36      -3.3458    -3.8592    -2.5976 H      1 <0>       0.0800
   37 H37      -1.0637    -5.2733    -3.5007 H      1 <0>       0.0700
   38 H38      -1.1345    -3.8362    -2.4698 H      1 <0>       0.0800
   39 H39      -0.2626    -4.1630    -0.0300 H      1 <0>       0.1000
   40 H40      -1.0743    -5.5521     0.7316 H      1 <0>       0.0800
   41 H41      -4.6605    -8.1045    -1.9025 H      1 <0>       0.0800
   42 H42      -3.1624    -9.0478    -1.7180 H      1 <0>       0.0900
   43 H43      -3.2682    -8.3520     0.8205 H      1 <0>       0.0900
   44 H44      -5.2421    -6.9613     1.2475 H      1 <0>       0.0700
   45 H45      -6.1012    -7.6148    -0.2140 H      1 <0>       0.0800
   46 H46      -5.3275    -9.1328     2.3807 H      1 <0>       0.0800
   47 H47      -6.7717    -9.4100     1.3138 H      1 <0>       0.0700
   48 H48      -5.3680   -10.1910    -0.5372 H      1 <0>       0.0800
   49 H49      -4.2015   -10.6177     0.7889 H      1 <0>       0.0700
   50 H50       0.7880    -0.2128    -1.9400 H      1 <0>       0.4400
@<TRIPOS>BOND
   1    1    2 1
   2    1   29 1
   3    1   30 1
   4    1   31 1
   5    2   27 am
   6    2    3 1
   7    3    4 2
   8    3   32 1
   9    4    5 1
  10    4   24 1
  11    5    6 2
  12    5    7 am
  13    7   15 1
  14    7    8 1
  15    8    9 1
  16    8   33 1
  17    8   34 1
  18    9   10 1
  19    9   18 1
  20    9   11 1
  21   11   12 1
  22   11   35 1
  23   11   36 1
  24   12   13 1
  25   12   37 1
  26   12   38 1
  27   13   14 1
  28   13   15 1
  29   13   16 1
  30   15   39 1
  31   15   40 1
  32   16   17 2
  33   16   18 am
  34   18   19 1
  35   19   20 1
  36   19   41 1
  37   19   42 1
  38   20   23 1
  39   20   21 1
  40   20   43 1
  41   21   22 1
  42   21   44 1
  43   21   45 1
  44   22   23 1
  45   22   46 1
  46   22   47 1
  47   23   48 1
  48   23   49 1
  49   24   25 2
  50   24   26 am
  51   26   27 am
  52   26   50 1
  53   27   28 2

@<TRIPOS>MOLECULE
ZINC000095367027
  49   52    0    0    0
SMALL
USER_CHARGES
NO_NAME
@<TRIPOS>ATOM
    1 C1        1.5846    -1.1491     2.3192 C.3    1 <0>       0.0700
    2 N2        0.7663    -1.2488     1.1081 N.am   1 <0>      -0.5500
    3 C3       -0.3839    -1.9707     1.1418 C.2    1 <0>       0.1700
    4 C4       -1.1567    -2.0653     0.0010 C.2    1 <0>      -0.3400
    5 C5       -2.4087    -2.8369    -0.0028 C.2    1 <0>       0.6100
    6 O6       -3.4771    -2.2631     0.0931 O.2    1 <0>      -0.5400
    7 N7       -2.3725    -4.1797    -0.1124 N.am   1 <0>      -0.6100
    8 C8       -3.6227    -4.9348    -0.2272 C.3    1 <0>       0.1000
    9 C9       -3.6422    -5.6941    -1.5535 C.3    1 <0>       0.1300
   10 H10      -4.6793    -5.8802    -1.8325 H      1 <0>       0.1000
   11 C11      -2.9826    -4.8854    -2.6538 C.3    1 <0>      -0.1200
   12 C12      -1.4679    -4.8689    -2.5727 C.3    1 <0>      -0.1100
   13 C13      -0.9190    -5.6763    -1.4095 C.3    1 <0>      -0.1300
   14 H14       0.1440    -5.8538    -1.5728 H      1 <0>       0.1100
   15 C15      -1.0832    -4.8745    -0.1221 C.3    1 <0>       0.1300
   16 C16      -1.6291    -7.0073    -1.3141 C.2    1 <0>       0.5300
   17 O17      -1.0134    -8.0430    -1.1757 O.2    1 <0>      -0.5500
   18 N18      -2.9607    -6.9851    -1.3960 N.am   1 <0>      -0.6000
   19 C19      -3.7470    -8.2188    -1.3190 C.3    1 <0>       0.1200
   20 C20      -4.1064    -8.5042     0.1405 C.3    1 <0>      -0.1200
   21 C21      -5.4061    -7.8223     0.5996 C.3    1 <0>      -0.1400
   22 C22      -5.7229    -9.1179     1.3650 C.3    1 <0>      -0.1400
   23 C23      -4.8303    -9.8454     0.3458 C.3    1 <0>      -0.1300
   24 C24      -0.6915    -1.3714    -1.2107 C.2    1 <0>       0.5400
   25 O25      -1.3349    -1.4223    -2.2422 O.2    1 <0>      -0.5800
   26 N26       0.4644    -0.6770    -1.1522 N.pl3  1 <0>      -0.6900
   27 C27       1.1674    -0.6203    -0.0081 C.2    1 <0>       0.6400
   28 O28       2.2048     0.0129     0.0140 O.2    1 <0>      -0.6100
   29 H29       2.4609    -0.5336     2.1159 H      1 <0>       0.1000
   30 H30       0.9982    -0.6940     3.1174 H      1 <0>       0.0600
   31 H31       1.9034    -2.1454     2.6254 H      1 <0>       0.0600
   32 H32      -0.6908    -2.4658     2.0512 H      1 <0>       0.1400
   33 H33      -3.6960    -5.6433     0.5978 H      1 <0>       0.0700
   34 H34      -4.4671    -4.2465    -0.1905 H      1 <0>       0.1100
   35 H35      -3.2755    -5.3033    -3.6169 H      1 <0>       0.0600
   36 H36      -3.3458    -3.8592    -2.5976 H      1 <0>       0.0900
   37 H37      -1.0637    -5.2733    -3.5007 H      1 <0>       0.0600
   38 H38      -1.1345    -3.8362    -2.4698 H      1 <0>       0.1000
   39 H39      -0.2626    -4.1630    -0.0300 H      1 <0>       0.1000
   40 H40      -1.0743    -5.5521     0.7316 H      1 <0>       0.0600
   41 H41      -4.6605    -8.1045    -1.9025 H      1 <0>       0.0800
   42 H42      -3.1624    -9.0478    -1.7180 H      1 <0>       0.0800
   43 H43      -3.2682    -8.3520     0.8205 H      1 <0>       0.0900
   44 H44      -5.2421    -6.9613     1.2475 H      1 <0>       0.0700
   45 H45      -6.1012    -7.6148    -0.2140 H      1 <0>       0.0800
   46 H46      -5.3275    -9.1328     2.3807 H      1 <0>       0.0800
   47 H47      -6.7717    -9.4100     1.3138 H      1 <0>       0.0700
   48 H48      -5.3680   -10.1910    -0.5372 H      1 <0>       0.0800
   49 H49      -4.2015   -10.6177     0.7889 H      1 <0>       0.0700
@<TRIPOS>BOND
   1    1    2 1
   2    1   29 1
   3    1   30 1
   4    1   31 1
   5    2   27 am
   6    2    3 1
   7    3    4 2
   8    3   32 1
   9    4    5 1
  10    4   24 1
  11    5    6 2
  12    5    7 am
  13    7   15 1
  14    7    8 1
  15    8    9 1
  16    8   33 1
  17    8   34 1
  18    9   10 1
  19    9   18 1
  20    9   11 1
  21   11   12 1
  22   11   35 1
  23   11   36 1
  24   12   13 1
  25   12   37 1
  26   12   38 1
  27   13   14 1
  28   13   15 1
  29   13   16 1
  30   15   39 1
  31   15   40 1
  32   16   17 2
  33   16   18 am
  34   18   19 1
  35   19   20 1
  36   19   41 1
  37   19   42 1
  38   20   23 1
  39   20   21 1
  40   20   43 1
  41   21   22 1
  42   21   44 1
  43   21   45 1
  44   22   23 1
  45   22   46 1
  46   22   47 1
  47   23   48 1
  48   23   49 1
  49   24   25 2
  50   24   26 1
  51   26   27 1
  52   27   28 2
@<TRIPOS>MOLECULE
ZINC000097122334
  40   43    0    0    0
SMALL
USER_CHARGES
NO_NAME
@<TRIPOS>ATOM
    1 C1       -1.5654    -3.0357     1.6501 C.3    1 <0>      -0.0700
    2 C2       -0.7130    -2.1507     0.7776 C.2    1 <0>       0.2400
    3 N3       -0.5017    -2.3159    -0.4995 N.2    1 <0>      -0.4900
    4 C4        0.3046    -1.3416    -0.9466 C.2    1 <0>      -0.0100
    5 C5        0.6082    -0.5379     0.0900 C.2    1 <0>      -0.0600
    6 N6       -0.0403    -1.0434     1.1876 N.pl3  1 <0>      -0.4100
    7 C7       -0.0077    -0.5230     2.4862 C.ar   1 <0>       0.3400
    8 C8        0.7351     0.6212     2.7486 C.ar   1 <0>      -0.1600
    9 C9        0.7608     1.1285     4.0356 C.ar   1 <0>      -0.0500
   10 C10       0.0352     0.4666     5.0241 C.ar   1 <0>       0.0800
   11 N11       0.0314     0.9436     6.3400 N.am   1 <0>      -0.6600
   12 C12       0.1174     2.2676     6.5770 C.2    1 <0>       0.5600
   13 O13       0.1016     3.0532     5.6499 O.2    1 <0>      -0.5000
   14 C14       0.2311     2.7652     7.9675 C.ar   1 <0>      -0.0700
   15 C15       0.2569     1.8771     9.0484 C.ar   1 <0>      -0.1500
   16 C16       0.3639     2.3808    10.3298 C.ar   1 <0>       0.1400
   17 N17       0.4415     3.6790    10.5443 N.ar   1 <0>      -0.4800
   18 C18       0.4209     4.5551     9.5536 C.ar   1 <0>       0.3700
   19 N19       0.5068     5.9220     9.8376 N.pl3  1 <0>      -0.3400
   20 C20       0.6187     6.4892    11.0554 C.2    1 <0>       0.3000
   21 N21       0.6703     7.7863    10.8944 N.2    1 <0>      -0.5300
   22 C22       0.5947     8.0848     9.5976 C.2    1 <0>       0.2200
   23 N23       0.4996     6.9769     8.9104 N.2    1 <0>      -0.3100
   24 C24       0.3214     4.1331     8.2345 C.ar   1 <0>      -0.1000
   25 C25      -0.6841    -0.6717     4.6869 C.ar   1 <0>       0.1200
   26 N26      -0.6892    -1.1233     3.4483 N.ar   1 <0>      -0.4700
   27 H27      -2.5923    -2.6703     1.6451 H      1 <0>       0.0800
   28 H28      -1.5409    -4.0558     1.2669 H      1 <0>       0.0800
   29 H29      -1.1795    -3.0211     2.6694 H      1 <0>       0.1000
   30 H30       0.6508    -1.2226    -1.9627 H      1 <0>       0.1800
   31 H31       1.2382     0.3389     0.0617 H      1 <0>       0.1800
   32 H32       1.2861     1.1084     1.9578 H      1 <0>       0.1500
   33 H33       1.3300     2.0163     4.2685 H      1 <0>       0.1600
   34 H34      -0.0332     0.3214     7.0813 H      1 <0>       0.4200
   35 H35       0.1936     0.8118     8.8828 H      1 <0>       0.1500
   36 H36       0.3840     1.7009    11.1687 H      1 <0>       0.1800
   37 H37       0.6585     5.9646    11.9986 H      1 <0>       0.2300
   38 H38       0.6135     9.0812     9.1813 H      1 <0>       0.2300
   39 H39       0.3049     4.8517     7.4284 H      1 <0>       0.1700
   40 H40      -1.2489    -1.1911     5.4470 H      1 <0>       0.1700
@<TRIPOS>BOND
   1    1    2 1
   2    1   27 1
   3    1   28 1
   4    1   29 1
   5    2    6 1
   6    2    3 2
   7    3    4 1
   8    4    5 2
   9    4   30 1
  10    5    6 1
  11    5   31 1
  12    6    7 1
  13    7   26 ar
  14    7    8 ar
  15    8    9 ar
  16    8   32 1
  17    9   10 ar
  18    9   33 1
  19   10   11 1
  20   10   25 ar
  21   11   12 am
  22   11   34 1
  23   12   13 2
  24   12   14 1
  25   14   24 ar
  26   14   15 ar
  27   15   16 ar
  28   15   35 1
  29   16   17 ar
  30   16   36 1
  31   17   18 ar
  32   18   19 1
  33   18   24 ar
  34   19   23 1
  35   19   20 1
  36   20   21 2
  37   20   37 1
  38   21   22 1
  39   22   23 2
  40   22   38 1
  41   24   39 1
  42   25   26 ar
  43   25   40 1

@<TRIPOS>MOLECULE
ZINC000097122334
  41   44    0    0    0
SMALL
USER_CHARGES
NO_NAME
@<TRIPOS>ATOM
    1 C1        0.3268     1.4724     0.0144 C.3    1 <0>      -0.1200
    2 C2        0.1519    -0.0243     0.0062 C.cat  1 <0>       0.3500
    3 N3        0.1053    -0.7801    -1.0567 N.pl3  1 <0>      -0.4800
    4 H4        0.1787    -0.4663    -1.9716 H      1 <0>       0.4700
    5 C5       -0.0590    -2.0589    -0.6863 C.2    1 <0>       0.0100
    6 C6       -0.1173    -2.1033     0.6581 C.2    1 <0>       0.0200
    7 N7        0.0220    -0.8140     1.1044 N.pl3  1 <0>      -0.3500
    8 C8        0.0211    -0.3906     2.4382 C.ar   1 <0>       0.2800
    9 C9       -0.1274    -1.3254     3.4549 C.ar   1 <0>      -0.1200
   10 C10      -0.1266    -0.8972     4.7706 C.ar   1 <0>      -0.0500
   11 C11       0.0241     0.4646     5.0248 C.ar   1 <0>       0.1300
   12 N12       0.0314     0.9436     6.3400 N.am   1 <0>      -0.6600
   13 C13       0.5407     0.1850     7.3307 C.2    1 <0>       0.5700
   14 O14       1.0800    -0.8725     7.0703 O.2    1 <0>      -0.4900
   15 C15       0.4433     0.6402     8.7368 C.ar   1 <0>      -0.0700
   16 C16      -0.1787     1.8516     9.0583 C.ar   1 <0>      -0.1500
   17 C17      -0.2492     2.2408    10.3814 C.ar   1 <0>       0.1400
   18 N18       0.2592     1.4893    11.3377 N.ar   1 <0>      -0.4800
   19 C19       0.8559     0.3372    11.0807 C.ar   1 <0>       0.3800
   20 N20       1.3777    -0.4211    12.1338 N.pl3  1 <0>      -0.3500
   21 C21       1.3435    -0.1136    13.4458 C.2    1 <0>       0.3000
   22 N22       1.9369    -1.0768    14.1027 N.2    1 <0>      -0.5300
   23 C23       2.3605    -2.0110    13.2516 C.2    1 <0>       0.2300
   24 N24       2.0364    -1.6577    12.0355 N.2    1 <0>      -0.3100
   25 C25       0.9646    -0.1310     9.7780 C.ar   1 <0>      -0.1000
   26 C26       0.1675     1.3399     3.9570 C.ar   1 <0>       0.1200
   27 N27       0.1670     0.8947     2.7161 N.ar   1 <0>      -0.4600
   28 H28       1.3891     1.7139     0.0511 H      1 <0>       0.1200
   29 H29      -0.1106     1.8944    -0.8905 H      1 <0>       0.1100
   30 H30      -0.1715     1.8917     0.8885 H      1 <0>       0.1400
   31 H31      -0.1323    -2.9064    -1.3516 H      1 <0>       0.2300
   32 H32      -0.2452    -2.9854     1.2680 H      1 <0>       0.2300
   33 H33      -0.2423    -2.3735     3.2213 H      1 <0>       0.1600
   34 H34      -0.2405    -1.6016     5.5813 H      1 <0>       0.1700
   35 H35      -0.3302     1.8216     6.5383 H      1 <0>       0.4200
   36 H36      -0.5979     2.4743     8.2819 H      1 <0>       0.1500
   37 H37      -0.7276     3.1748    10.6365 H      1 <0>       0.1800
   38 H38       0.9037     0.7727    13.8787 H      1 <0>       0.2300
   39 H39       2.8834    -2.9161    13.5233 H      1 <0>       0.2300
   40 H40       1.4526    -1.0723     9.5723 H      1 <0>       0.1700
   41 H41       0.2845     2.3970     4.1451 H      1 <0>       0.1900
@<TRIPOS>BOND
   1    1    2 1
   2    1   28 1
   3    1   29 1
   4    1   30 1
   5    2    7 ar
   6    2    3 ar
   7    3    4 1
   8    3    5 1
   9    5    6 2
  10    5   31 1
  11    6    7 1
  12    6   32 1
  13    7    8 1
  14    8   27 ar
  15    8    9 ar
  16    9   10 ar
  17    9   33 1
  18   10   11 ar
  19   10   34 1
  20   11   12 1
  21   11   26 ar
  22   12   13 am
  23   12   35 1
  24   13   14 2
  25   13   15 1
  26   15   25 ar
  27   15   16 ar
  28   16   17 ar
  29   16   36 1
  30   17   18 ar
  31   17   37 1
  32   18   19 ar
  33   19   20 1
  34   19   25 ar
  35   20   24 1
  36   20   21 1
  37   21   22 2
  38   21   38 1
  39   22   23 1
  40   23   24 2
  41   23   39 1
  42   25   40 1
  43   26   27 ar
  44   26   41 1
@<TRIPOS>MOLECULE
ZINC000003288072
42    44    1     0     0
SMALL
USER_CHARGES
@<TRIPOS>ATOM
1      O1     -0.0287    0.6270    0.8395 O.2      1 ZINC000003288072   -0.5300
2      C2     -0.0662    1.6520    0.1864 C.2      1 ZINC000003288072    0.5600
3      C3      1.1403    2.4918    0.0618 C.ar     1 ZINC000003288072   -0.1400
4      C4      1.0196    3.8811   -0.0357 C.ar     1 ZINC000003288072   -0.0800
5      C5      2.1469    4.6618   -0.1513 C.ar     1 ZINC000003288072   -0.1400
6      C6      3.4066    4.0694   -0.1712 C.ar     1 ZINC000003288072    0.1700
7      N7      4.5438    4.8609   -0.2881 N.am     1 ZINC000003288072   -1.0500
8      S8      5.8451    4.5920    0.7002 S.o2     1 ZINC000003288072    2.6900
9      O9      6.1011    3.1949    0.6553 O.2      1 ZINC000003288072   -0.9400
10     O10     6.8166    5.5715    0.3599 O.2      1 ZINC000003288072   -0.9400
11     C11     5.3321    4.9511    2.3472 C.ar     1 ZINC000003288072   -0.6700
12     C12     5.3702    6.2514    2.8148 C.ar     1 ZINC000003288072   -0.0100
13     C13     4.9675    6.5337    4.1065 C.ar     1 ZINC000003288072   -0.1100
14     C14     4.5264    5.5147    4.9315 C.ar     1 ZINC000003288072   -0.0400
15     Br15    3.9748    5.9003    6.6987 Br       1 ZINC000003288072   -0.0300
16     C16     4.4886    4.2137    4.4632 C.ar     1 ZINC000003288072   -0.1100
17     C17     4.8864    3.9332    3.1696 C.ar     1 ZINC000003288072   -0.0100
18     C18     3.5301    2.6861   -0.0737 C.ar     1 ZINC000003288072   -0.1600
19     C19     2.4069    1.9004    0.0469 C.ar     1 ZINC000003288072   -0.0400
20     N20    -1.2084    2.0180   -0.4283 N.am     1 ZINC000003288072   -0.6100
21     C21    -1.2456    3.1831   -1.3264 C.3      1 ZINC000003288072    0.0600
22     C22    -1.9013    2.7567   -2.6448 C.3      1 ZINC000003288072    0.0500
23     O23    -3.1555    2.1300   -2.3655 O.3      1 ZINC000003288072   -0.3800
24     C24    -3.0518    0.9310   -1.5939 C.3      1 ZINC000003288072    0.0500
25     C25    -2.4537    1.2607   -0.2261 C.3      1 ZINC000003288072    0.0800
26     H26     0.0426    4.3412   -0.0208 H        1 ZINC000003288072    0.1400
27     H27     2.0543    5.7351   -0.2271 H        1 ZINC000003288072    0.1400
28     H28     4.5749    5.5707   -0.9485 H        1 ZINC000003288072    0.4300
29     H29     5.7149    7.0469    2.1707 H        1 ZINC000003288072    0.1500
30     H30     4.9976    7.5496    4.4718 H        1 ZINC000003288072    0.1500
31     H31     4.1442    3.4178    5.1070 H        1 ZINC000003288072    0.1500
32     H32     4.8569    2.9174    2.8039 H        1 ZINC000003288072    0.1500
33     H33     4.5087    2.2295   -0.0894 H        1 ZINC000003288072    0.1700
34     H34     2.5034    0.8274    0.1229 H        1 ZINC000003288072    0.1400
35     H35    -1.8287    3.9817   -0.8678 H        1 ZINC000003288072    0.0800
36     H36    -0.2307    3.5321   -1.5172 H        1 ZINC000003288072    0.1100
37     H37    -2.0640    3.6339   -3.2709 H        1 ZINC000003288072    0.1100
38     H38    -1.2505    2.0533   -3.1642 H        1 ZINC000003288072    0.0600
39     H39    -4.0423    0.4949   -1.4640 H        1 ZINC000003288072    0.1100
40     H40    -2.4053    0.2210   -2.1095 H        1 ZINC000003288072    0.0600
41     H41    -2.2405    0.3378    0.3134 H        1 ZINC000003288072    0.1100
42     H42    -3.1567    1.8666    0.3456 H        1 ZINC000003288072    0.0800
@<TRIPOS>BOND
1     1     2     2
2     2     3     1
3     2     20    am
4     3     19    ar
5     3     4     ar
6     4     5     ar
7     4     26    1
8     5     6     ar
9     5     27    1
10    6     7     1
11    6     18    ar
12    7     8     am
13    7     28    1
14    8     9     2
15    8     10    2
16    8     11    1
17    11    17    ar
18    11    12    ar
19    12    13    ar
20    12    29    1
21    13    14    ar
22    13    30    1
23    14    15    1
24    14    16    ar
25    16    17    ar
26    16    31    1
27    17    32    1
28    18    19    ar
29    18    33    1
30    19    34    1
31    20    25    1
32    20    21    1
33    21    22    1
34    21    35    1
35    21    36    1
36    22    23    1
37    22    37    1
38    22    38    1
39    23    24    1
40    24    25    1
41    24    39    1
42    24    40    1
43    25    41    1
44    25    42    1
@<TRIPOS>SUBSTRUCTURE
1   ZINC000003288072 1     RESIDUE    1   A     ZIN   1

@<TRIPOS>MOLECULE
ZINC000003288072
41    43    1     0     0
SMALL
USER_CHARGES
@<TRIPOS>ATOM
1      O1     -0.0417    0.2243    0.7177 O.2      1 ZINC000003288072   -0.5600
2      C2     -0.0144    1.2117    0.0087 C.2      1 ZINC000003288072    0.5800
3      C3      1.1826    2.0738   -0.0097 C.ar     1 ZINC000003288072   -0.2600
4      C4      1.0446    3.4622   -0.0954 C.ar     1 ZINC000003288072   -0.0500
5      C5      2.1631    4.2637   -0.1119 C.ar     1 ZINC000003288072   -0.1900
6      C6      3.4312    3.6931   -0.0433 C.ar     1 ZINC000003288072    0.3100
7      N7      4.5594    4.5056   -0.0602 N.pl3    1 ZINC000003288072   -1.0800
8      S8      6.0685    3.8287    0.0213 S.o2     1 ZINC000003288072    2.6000
9      O9      6.1762    3.2425    1.3112 O.2      1 ZINC000003288072   -1.0200
10     O10     6.2449    3.0953   -1.1830 O.2      1 ZINC000003288072   -1.0200
11     C11     7.2352    5.1484   -0.0245 C.ar     1 ZINC000003288072   -0.6000
12     C12     7.7213    5.5992   -1.2375 C.ar     1 ZINC000003288072   -0.0200
13     C13     8.6362    6.6346   -1.2739 C.ar     1 ZINC000003288072   -0.1200
14     C14     9.0653    7.2198   -0.0963 C.ar     1 ZINC000003288072   -0.0500
15     Br15   10.3165    8.6369   -0.1454 Br       1 ZINC000003288072   -0.0500
16     C16     8.5787    6.7684    1.1173 C.ar     1 ZINC000003288072   -0.1200
17     C17     7.6599    5.7364    1.1524 C.ar     1 ZINC000003288072   -0.0200
18     C18     3.5719    2.3107    0.0426 C.ar     1 ZINC000003288072   -0.2700
19     C19     2.4571    1.5042    0.0643 C.ar     1 ZINC000003288072    0.0000
20     N20    -1.0757    1.5157   -0.7645 N.am     1 ZINC000003288072   -0.6200
21     C21    -1.0175    2.6262   -1.7282 C.3      1 ZINC000003288072    0.0700
22     C22    -1.4953    2.1100   -3.0902 C.3      1 ZINC000003288072    0.0500
23     O23    -2.7649    1.4719   -2.9327 O.3      1 ZINC000003288072   -0.3800
24     C24    -2.7406    0.3218   -2.0839 C.3      1 ZINC000003288072    0.0500
25     C25    -2.3247    0.7429   -0.6743 C.3      1 ZINC000003288072    0.0800
26     H26     0.0612    3.9054   -0.1490 H        1 ZINC000003288072    0.1100
27     H27     2.0572    5.3364   -0.1785 H        1 ZINC000003288072    0.1200
28     H28     7.3864    5.1421   -2.1569 H        1 ZINC000003288072    0.1500
29     H29     9.0161    6.9866   -2.2216 H        1 ZINC000003288072    0.1400
30     H30     8.9134    7.2250    2.0370 H        1 ZINC000003288072    0.1400
31     H31     7.2798    5.3838    2.0999 H        1 ZINC000003288072    0.1500
32     H32     4.5569    1.8711    0.0956 H        1 ZINC000003288072    0.1000
33     H33     2.5669    0.4319    0.1314 H        1 ZINC000003288072    0.1100
34     H34    -1.6661    3.4362   -1.3945 H        1 ZINC000003288072    0.0700
35     H35     0.0078    2.9868   -1.8113 H        1 ZINC000003288072    0.1100
36     H36    -1.5914    2.9459   -3.7831 H        1 ZINC000003288072    0.1100
37     H37    -0.7735    1.3930   -3.4814 H        1 ZINC000003288072    0.0600
38     H38    -3.7326   -0.1288   -2.0528 H        1 ZINC000003288072    0.1000
39     H39    -2.0233   -0.4017   -2.4715 H        1 ZINC000003288072    0.0500
40     H40    -2.1668   -0.1424   -0.0583 H        1 ZINC000003288072    0.1000
41     H41    -3.1033    1.3644   -0.2321 H        1 ZINC000003288072    0.0700
@<TRIPOS>BOND
1     1     2     2
2     2     3     1
3     2     20    am
4     3     19    ar
5     3     4     ar
6     4     5     ar
7     4     26    1
8     5     6     ar
9     5     27    1
10    6     7     1
11    6     18    ar
12    7     8     1
13    8     9     2
14    8     10    2
15    8     11    1
16    11    17    ar
17    11    12    ar
18    12    13    ar
19    12    28    1
20    13    14    ar
21    13    29    1
22    14    15    1
23    14    16    ar
24    16    17    ar
25    16    30    1
26    17    31    1
27    18    19    ar
28    18    32    1
29    19    33    1
30    20    25    1
31    20    21    1
32    21    22    1
33    21    34    1
34    21    35    1
35    22    23    1
36    22    36    1
37    22    37    1
38    23    24    1
39    24    25    1
40    24    38    1
41    24    39    1
42    25    40    1
43    25    41    1
@<TRIPOS>SUBSTRUCTURE
1   ZINC000003288072 1     RESIDUE    1   A     ZIN   1
@<TRIPOS>MOLECULE
ZINC000008840833
47    49    1     0     0
SMALL
USER_CHARGES
@<TRIPOS>ATOM
1      C1     -0.0271    1.5219    0.0089 C.3      1 ZINC000008840833   -0.1500
2      C2     -0.0525   -0.0078   -0.0115 C.3      1 ZINC000008840833   -0.1100
3      C3      0.7292   -0.5469    1.1882 C.3      1 ZINC000008840833   -0.1500
4      C4     -1.5010   -0.4948    0.0631 C.3      1 ZINC000008840833    0.1100
5      N5     -1.5337   -1.9528   -0.0765 N.am     1 ZINC000008840833   -0.5500
6      C6     -1.6407   -2.5050   -1.2989 C.2      1 ZINC000008840833    0.5200
7      O7     -1.6943   -1.7900   -2.2772 O.2      1 ZINC000008840833   -0.5200
8      C8     -1.6942   -3.9997   -1.4661 C.3      1 ZINC000008840833   -0.1400
9      C9     -0.8017   -4.6727   -0.4228 C.3      1 ZINC000008840833   -0.0800
10     C10    -1.0978   -4.0998    0.9388 C.ar     1 ZINC000008840833   -0.1100
11     C11    -1.0157   -4.9002    2.0601 C.ar     1 ZINC000008840833   -0.0900
12     C12    -1.2897   -4.3685    3.3139 C.ar     1 ZINC000008840833    0.1200
13     N13    -1.2062   -5.1791    4.4510 N.am     1 ZINC000008840833   -1.0500
14     S14    -0.4196   -4.6323    5.8018 S.o2     1 ZINC000008840833    2.6900
15     O15    -0.9742   -3.3587    6.1011 O.2      1 ZINC000008840833   -0.9400
16     O16    -0.4100   -5.7122    6.7253 O.2      1 ZINC000008840833   -0.9400
17     C17     1.2596   -4.3498    5.3490 C.ar     1 ZINC000008840833   -0.6700
18     C18     2.1643   -5.3949    5.3634 C.ar     1 ZINC000008840833   -0.0100
19     C19     3.4816   -5.1739    5.0079 C.ar     1 ZINC000008840833   -0.1100
20     C20     3.8945   -3.9067    4.6376 C.ar     1 ZINC000008840833   -0.0400
21     Br21    5.6964   -3.6038    4.1505 Br       1 ZINC000008840833   -0.0300
22     C22     2.9889   -2.8612    4.6233 C.ar     1 ZINC000008840833   -0.1100
23     C23     1.6706   -3.0843    4.9739 C.ar     1 ZINC000008840833   -0.0100
24     C24    -1.6461   -3.0321    3.4385 C.ar     1 ZINC000008840833   -0.1200
25     C25    -1.7277   -2.2316    2.3163 C.ar     1 ZINC000008840833   -0.1300
26     C26    -1.4477   -2.7630    1.0630 C.ar     1 ZINC000008840833    0.1700
27     H27     1.0048    1.8689   -0.0442 H        1 ZINC000008840833    0.0600
28     H28    -0.5840    1.9060   -0.8457 H        1 ZINC000008840833    0.0600
29     H29    -0.4840    1.8806    0.9313 H        1 ZINC000008840833    0.0600
30     H30     0.4044   -0.3665   -0.9338 H        1 ZINC000008840833    0.0700
31     H31     0.7111   -1.6366    1.1736 H        1 ZINC000008840833    0.0600
32     H32     1.7611   -0.1999    1.1351 H        1 ZINC000008840833    0.0600
33     H33     0.2723   -0.1882    2.1105 H        1 ZINC000008840833    0.0600
34     H34    -1.9304   -0.2121    1.0242 H        1 ZINC000008840833    0.0900
35     H35    -2.0792   -0.0398   -0.7411 H        1 ZINC000008840833    0.0900
36     H36    -2.7212   -4.3417   -1.3387 H        1 ZINC000008840833    0.1000
37     H37    -1.3470   -4.2649   -2.4647 H        1 ZINC000008840833    0.1100
38     H38    -0.9966   -5.7451   -0.4158 H        1 ZINC000008840833    0.0900
39     H39     0.2447   -4.4957   -0.6716 H        1 ZINC000008840833    0.0800
40     H40    -0.7388   -5.9395    1.9628 H        1 ZINC000008840833    0.1400
41     H41    -1.6090   -6.0615    4.4482 H        1 ZINC000008840833    0.4300
42     H42     1.8419   -6.3842    5.6529 H        1 ZINC000008840833    0.1500
43     H43     4.1885   -5.9903    5.0195 H        1 ZINC000008840833    0.1500
44     H44     3.3108   -1.8717    4.3342 H        1 ZINC000008840833    0.1400
45     H45     0.9634   -2.2681    4.9628 H        1 ZINC000008840833    0.1500
46     H46    -1.8599   -2.6189    4.4131 H        1 ZINC000008840833    0.1600
47     H47    -2.0048   -1.1923    2.4133 H        1 ZINC000008840833    0.1400
@<TRIPOS>BOND
1     1     2     1
2     1     27    1
3     1     28    1
4     1     29    1
5     2     3     1
6     2     4     1
7     2     30    1
8     3     31    1
9     3     32    1
10    3     33    1
11    4     5     1
12    4     34    1
13    4     35    1
14    5     26    1
15    5     6     am
16    6     7     2
17    6     8     1
18    8     9     1
19    8     36    1
20    8     37    1
21    9     10    1
22    9     38    1
23    9     39    1
24    10    26    ar
25    10    11    ar
26    11    12    ar
27    11    40    1
28    12    13    1
29    12    24    ar
30    13    14    am
31    13    41    1
32    14    15    2
33    14    16    2
34    14    17    1
35    17    23    ar
36    17    18    ar
37    18    19    ar
38    18    42    1
39    19    20    ar
40    19    43    1
41    20    21    1
42    20    22    ar
43    22    23    ar
44    22    44    1
45    23    45    1
46    24    25    ar
47    24    46    1
48    25    26    ar
49    25    47    1
@<TRIPOS>SUBSTRUCTURE
1   ZINC000008840833 1     RESIDUE    1   A     ZIN   1

@<TRIPOS>MOLECULE
ZINC000008840833
46    48    1     0     0
SMALL
USER_CHARGES
@<TRIPOS>ATOM
1      C1     -0.0187    1.5258    0.0104 C.3      1 ZINC000008840833   -0.1300
2      C2      0.0021   -0.0041    0.0020 C.3      1 ZINC000008840833   -0.1100
3      C3     -1.4333   -0.5336    0.0129 C.3      1 ZINC000008840833   -0.1400
4      C4      0.7182   -0.4975   -1.2568 C.3      1 ZINC000008840833    0.1100
5      N5      2.1249   -0.0911   -1.2094 N.am     1 ZINC000008840833   -0.5300
6      C6      2.4961    1.0942   -1.7272 C.2      1 ZINC000008840833    0.5100
7      O7      1.6591    1.8233   -2.2162 O.2      1 ZINC000008840833   -0.5500
8      C8      3.9377    1.5256   -1.7061 C.3      1 ZINC000008840833   -0.1300
9      C9      4.6105    1.0317   -0.4250 C.3      1 ZINC000008840833   -0.0700
10     C10     4.3040   -0.4300   -0.2260 C.ar     1 ZINC000008840833   -0.0700
11     C11     5.2413   -1.2620    0.3518 C.ar     1 ZINC000008840833   -0.1500
12     C12     4.9554   -2.6093    0.5333 C.ar     1 ZINC000008840833    0.2700
13     N13     5.9049   -3.4532    1.1193 N.pl3    1 ZINC000008840833   -1.0900
14     S14     5.5639   -5.0592    1.3357 S.o2     1 ZINC000008840833    2.6000
15     O15     4.5174   -5.1215    2.2949 O.2      1 ZINC000008840833   -1.0300
16     O16     5.4624   -5.6264    0.0368 O.2      1 ZINC000008840833   -1.0300
17     C17     6.9756   -5.7949    2.0910 C.ar     1 ZINC000008840833   -0.6000
18     C18     7.9846   -6.3202    1.3055 C.ar     1 ZINC000008840833   -0.0200
19     C19     9.0924   -6.8970    1.8975 C.ar     1 ZINC000008840833   -0.1200
20     C20     9.1913   -6.9487    3.2763 C.ar     1 ZINC000008840833   -0.0500
21     Br21   10.7069   -7.7372    4.0868 Br       1 ZINC000008840833   -0.0600
22     C22     8.1814   -6.4230    4.0619 C.ar     1 ZINC000008840833   -0.1200
23     C23     7.0765   -5.8416    3.4690 C.ar     1 ZINC000008840833   -0.0200
24     C24     3.7268   -3.1182    0.1334 C.ar     1 ZINC000008840833   -0.2400
25     C25     2.7891   -2.2852   -0.4442 C.ar     1 ZINC000008840833   -0.0900
26     C26     3.0739   -0.9363   -0.6201 C.ar     1 ZINC000008840833    0.0400
27     H27     1.0039    1.9031    0.0027 H        1 ZINC000008840833    0.0500
28     H28    -0.5459    1.8868   -0.8726 H        1 ZINC000008840833    0.0600
29     H29    -0.5289    1.8773    0.9072 H        1 ZINC000008840833    0.0400
30     H30     0.5293   -0.3651    0.8851 H        1 ZINC000008840833    0.0700
31     H31    -1.9605   -0.1726   -0.8702 H        1 ZINC000008840833    0.0500
32     H32    -1.4185   -1.6235    0.0069 H        1 ZINC000008840833    0.0600
33     H33    -1.9435   -0.1821    0.9097 H        1 ZINC000008840833    0.0600
34     H34     0.6556   -1.5845   -1.3079 H        1 ZINC000008840833    0.0800
35     H35     0.2444   -0.0644   -2.1377 H        1 ZINC000008840833    0.0800
36     H36     4.4535    1.1072   -2.5703 H        1 ZINC000008840833    0.1000
37     H37     3.9906    2.6136   -1.7464 H        1 ZINC000008840833    0.1000
38     H38     5.6888    1.1690   -0.5049 H        1 ZINC000008840833    0.0800
39     H39     4.2343    1.6006    0.4253 H        1 ZINC000008840833    0.0700
40     H40     6.1969   -0.8659    0.6623 H        1 ZINC000008840833    0.1200
41     H41     7.9071   -6.2801    0.2290 H        1 ZINC000008840833    0.1500
42     H42     9.8804   -7.3077    1.2837 H        1 ZINC000008840833    0.1400
43     H43     8.2583   -6.4630    5.1384 H        1 ZINC000008840833    0.1400
44     H44     6.2880   -5.4311    4.0823 H        1 ZINC000008840833    0.1500
45     H45     3.5047   -4.1658    0.2739 H        1 ZINC000008840833    0.1000
46     H46     1.8336   -2.6810   -0.7552 H        1 ZINC000008840833    0.1100
@<TRIPOS>BOND
1     1     2     1
2     1     27    1
3     1     28    1
4     1     29    1
5     2     3     1
6     2     4     1
7     2     30    1
8     3     31    1
9     3     32    1
10    3     33    1
11    4     5     1
12    4     34    1
13    4     35    1
14    5     26    1
15    5     6     am
16    6     7     2
17    6     8     1
18    8     9     1
19    8     36    1
20    8     37    1
21    9     10    1
22    9     38    1
23    9     39    1
24    10    26    ar
25    10    11    ar
26    11    12    ar
27    11    40    1
28    12    13    1
29    12    24    ar
30    13    14    1
31    14    15    2
32    14    16    2
33    14    17    1
34    17    23    ar
35    17    18    ar
36    18    19    ar
37    18    41    1
38    19    20    ar
39    19    42    1
40    20    21    1
41    20    22    ar
42    22    23    ar
43    22    43    1
44    23    44    1
45    24    25    ar
46    24    45    1
47    25    26    ar
48    25    46    1
@<TRIPOS>SUBSTRUCTURE
1   ZINC000008840833 1     RESIDUE    1   A     ZIN   1
@<TRIPOS>MOLECULE
ZINC000012585120
42    44    1     0     0
SMALL
USER_CHARGES
@<TRIPOS>ATOM
1      O1      0.0021   -0.0041    0.0020 O.2      1 ZINC000012585120   -1.0200
2      S2     -0.0172    1.4168    0.0098 S.o2     1 ZINC000012585120    2.6000
3      O3      1.1617    2.2101    0.0028 O.2      1 ZINC000012585120   -1.0100
4      N4     -0.9002    1.8797   -1.3124 N.pl3    1 ZINC000012585120   -1.0800
5      C5     -0.4169    1.6271   -2.5983 C.ar     1 ZINC000012585120    0.2600
6      C6      0.8013    0.9825   -2.7698 C.ar     1 ZINC000012585120   -0.2200
7      C7      1.2761    0.7338   -4.0428 C.ar     1 ZINC000012585120   -0.0800
8      C8      0.5401    1.1257   -5.1457 C.ar     1 ZINC000012585120   -0.1300
9      C9     -0.6733    1.7682   -4.9785 C.ar     1 ZINC000012585120   -0.6300
10     S10    -1.6072    2.2655   -6.3874 S.o2     1 ZINC000012585120    2.6900
11     O11    -2.4487    3.3266   -5.9569 O.2      1 ZINC000012585120   -0.9600
12     O12    -0.6814    2.3931   -7.4579 O.2      1 ZINC000012585120   -0.9600
13     N13    -2.6075    1.0061   -6.7819 N.am     1 ZINC000012585120   -1.0000
14     C14    -2.1708   -0.0445   -7.7151 C.3      1 ZINC000012585120    0.0900
15     C15    -2.4339   -1.4079   -7.0658 C.3      1 ZINC000012585120    0.0500
16     O16    -3.7953   -1.4686   -6.6335 O.3      1 ZINC000012585120   -0.3800
17     C17    -4.1352   -0.5055   -5.6331 C.3      1 ZINC000012585120    0.0400
18     C18    -3.9571    0.9012   -6.2047 C.3      1 ZINC000012585120    0.0900
19     C19    -1.1565    2.0148   -3.7087 C.ar     1 ZINC000012585120   -0.0800
20     C20    -0.9297    1.8941    1.4396 C.ar     1 ZINC000012585120   -0.6600
21     C21    -1.4223    0.9303    2.2985 C.ar     1 ZINC000012585120    0.0100
22     C22    -2.1383    1.3039    3.4205 C.ar     1 ZINC000012585120   -0.1500
23     C23    -2.3625    2.6432    3.6847 C.ar     1 ZINC000012585120    0.0300
24     Cl24   -3.2612    3.1113    5.0942 Cl       1 ZINC000012585120   -0.0600
25     C25    -1.8700    3.6095    2.8259 C.ar     1 ZINC000012585120   -0.1700
26     C26    -1.1482    3.2356    1.7056 C.ar     1 ZINC000012585120    0.2200
27     F27    -0.6663    4.1783    0.8664 F        1 ZINC000012585120   -0.1100
28     H28     1.3770    0.6765   -1.9087 H        1 ZINC000012585120    0.1000
29     H29     2.2235    0.2330   -4.1769 H        1 ZINC000012585120    0.1100
30     H30     0.9136    0.9301   -6.1399 H        1 ZINC000012585120    0.1200
31     H31    -2.7335    0.0338   -8.6454 H        1 ZINC000012585120    0.0800
32     H32    -1.1058    0.0655   -7.9194 H        1 ZINC000012585120    0.1000
33     H33    -2.2469   -2.1991   -7.7918 H        1 ZINC000012585120    0.1000
34     H34    -1.7736   -1.5363   -6.2081 H        1 ZINC000012585120    0.0600
35     H35    -5.1720   -0.6475   -5.3284 H        1 ZINC000012585120    0.1000
36     H36    -3.4810   -0.6306   -4.7703 H        1 ZINC000012585120    0.0600
37     H37    -4.0766    1.6380   -5.4105 H        1 ZINC000012585120    0.1000
38     H38    -4.6984    1.0773   -6.9842 H        1 ZINC000012585120    0.0800
39     H39    -2.1040    2.5166   -3.5788 H        1 ZINC000012585120    0.1300
40     H40    -1.2482   -0.1156    2.0929 H        1 ZINC000012585120    0.1600
41     H41    -2.5233    0.5497    4.0909 H        1 ZINC000012585120    0.1500
42     H42    -2.0451    4.6551    3.0317 H        1 ZINC000012585120    0.1500
@<TRIPOS>BOND
1     1     2     2
2     2     3     2
3     2     4     1
4     2     20    1
5     4     5     1
6     5     19    ar
7     5     6     ar
8     6     7     ar
9     6     28    1
10    7     8     ar
11    7     29    1
12    8     9     ar
13    8     30    1
14    9     10    1
15    9     19    ar
16    10    11    2
17    10    12    2
18    10    13    am
19    13    18    1
20    13    14    1
21    14    15    1
22    14    31    1
23    14    32    1
24    15    16    1
25    15    33    1
26    15    34    1
27    16    17    1
28    17    18    1
29    17    35    1
30    17    36    1
31    18    37    1
32    18    38    1
33    19    39    1
34    20    26    ar
35    20    21    ar
36    21    22    ar
37    21    40    1
38    22    23    ar
39    22    41    1
40    23    24    1
41    23    25    ar
42    25    26    ar
43    25    42    1
44    26    27    1
@<TRIPOS>SUBSTRUCTURE
1   ZINC000012585120 1     RESIDUE    1   A     ZIN   1

@<TRIPOS>MOLECULE
ZINC000012585120
43    45    1     0     0
SMALL
USER_CHARGES
@<TRIPOS>ATOM
1      O1     -0.3732    1.9373    1.1597 O.2      1 ZINC000012585120   -0.9400
2      S2      0.1063    1.4331   -0.0793 S.o2     1 ZINC000012585120    2.6900
3      O3      0.2983    0.0481   -0.3327 O.2      1 ZINC000012585120   -0.9300
4      N4     -0.9372    1.9811   -1.2425 N.am     1 ZINC000012585120   -1.0500
5      C5     -1.2462    3.3411   -1.3188 C.ar     1 ZINC000012585120    0.1200
6      C6     -1.5626    4.0487   -0.1664 C.ar     1 ZINC000012585120   -0.0900
7      C7     -1.8672    5.3936   -0.2454 C.ar     1 ZINC000012585120   -0.1100
8      C8     -1.8574    6.0355   -1.4699 C.ar     1 ZINC000012585120   -0.0300
9      C9     -1.5432    5.3337   -2.6196 C.ar     1 ZINC000012585120   -0.6600
10     S10    -1.5323    6.1567   -4.1776 S.o2     1 ZINC000012585120    2.6900
11     O11    -1.7325    5.1527   -5.1631 O.2      1 ZINC000012585120   -0.9500
12     O12    -2.3789    7.2895   -4.0390 O.2      1 ZINC000012585120   -0.9400
13     N13    -0.0013    6.7429   -4.4115 N.am     1 ZINC000012585120   -1.0000
14     C14     0.3745    8.0872   -3.9457 C.3      1 ZINC000012585120    0.0800
15     C15     1.6689    7.9727   -3.1323 C.3      1 ZINC000012585120    0.0500
16     O16     2.6480    7.2708   -3.9021 O.3      1 ZINC000012585120   -0.3700
17     C17     2.2864    5.9251   -4.2218 C.3      1 ZINC000012585120    0.0500
18     C18     1.0253    5.9325   -5.0859 C.3      1 ZINC000012585120    0.0800
19     C19    -1.2321    3.9903   -2.5470 C.ar     1 ZINC000012585120   -0.0300
20     C20     1.6611    2.2113   -0.3649 C.ar     1 ZINC000012585120   -0.7200
21     C21     2.1785    3.0857    0.5717 C.ar     1 ZINC000012585120    0.0200
22     C22     3.3983    3.6967    0.3485 C.ar     1 ZINC000012585120   -0.1400
23     C23     4.1024    3.4336   -0.8129 C.ar     1 ZINC000012585120    0.0500
24     Cl24    5.6344    4.2010   -1.0921 Cl       1 ZINC000012585120   -0.0300
25     C25     3.5859    2.5585   -1.7517 C.ar     1 ZINC000012585120   -0.1700
26     C26     2.3673    1.9424   -1.5255 C.ar     1 ZINC000012585120    0.2100
27     F27     1.8620    1.0872   -2.4412 F        1 ZINC000012585120   -0.1100
28     H28    -1.3338    1.3576   -1.8709 H        1 ZINC000012585120    0.4300
29     H29    -1.5707    3.5478    0.7904 H        1 ZINC000012585120    0.1700
30     H30    -2.1136    5.9443    0.6504 H        1 ZINC000012585120    0.1500
31     H31    -2.0960    7.0871   -1.5289 H        1 ZINC000012585120    0.1500
32     H32     0.5362    8.7408   -4.8028 H        1 ZINC000012585120    0.0900
33     H33    -0.4187    8.4933   -3.3181 H        1 ZINC000012585120    0.1000
34     H34     2.0390    8.9701   -2.8949 H        1 ZINC000012585120    0.1100
35     H35     1.4719    7.4274   -2.2094 H        1 ZINC000012585120    0.0600
36     H36     3.1008    5.4493   -4.7681 H        1 ZINC000012585120    0.1100
37     H37     2.0916    5.3723   -3.3028 H        1 ZINC000012585120    0.0500
38     H38     0.6633    4.9126   -5.2158 H        1 ZINC000012585120    0.1000
39     H39     1.2496    6.3696   -6.0589 H        1 ZINC000012585120    0.0900
40     H40    -0.9869    3.4429   -3.4451 H        1 ZINC000012585120    0.1500
41     H41     1.6295    3.2921    1.4786 H        1 ZINC000012585120    0.1700
42     H42     3.8017    4.3802    1.0810 H        1 ZINC000012585120    0.1600
43     H43     4.1352    2.3531   -2.6586 H        1 ZINC000012585120    0.1600
@<TRIPOS>BOND
1     1     2     2
2     2     3     2
3     2     4     am
4     2     20    1
5     4     5     1
6     4     28    1
7     5     19    ar
8     5     6     ar
9     6     7     ar
10    6     29    1
11    7     8     ar
12    7     30    1
13    8     9     ar
14    8     31    1
15    9     10    1
16    9     19    ar
17    10    11    2
18    10    12    2
19    10    13    am
20    13    18    1
21    13    14    1
22    14    15    1
23    14    32    1
24    14    33    1
25    15    16    1
26    15    34    1
27    15    35    1
28    16    17    1
29    17    18    1
30    17    36    1
31    17    37    1
32    18    38    1
33    18    39    1
34    19    40    1
35    20    26    ar
36    20    21    ar
37    21    22    ar
38    21    41    1
39    22    23    ar
40    22    42    1
41    23    24    1
42    23    25    ar
43    25    26    ar
44    25    43    1
45    26    27    1
@<TRIPOS>SUBSTRUCTURE
1   ZINC000012585120 1     RESIDUE    1   A     ZIN   1
@<TRIPOS>MOLECULE
ZINC000009540591
45    47    1     0     0
SMALL
USER_CHARGES
@<TRIPOS>ATOM
1      O1     -0.4476    2.0526    1.0950 O.2      1 ZINC000009540591   -0.9400
2      S2      0.0910    1.4326   -0.0646 S.o2     1 ZINC000009540591    2.6900
3      O3      0.2846    0.0294   -0.1768 O.2      1 ZINC000009540591   -0.9400
4      N4     -0.8868    1.8722   -1.3268 N.am     1 ZINC000009540591   -1.0500
5      C5     -1.1987    3.2180   -1.5328 C.ar     1 ZINC000009540591    0.1200
6      C6     -1.5666    4.0194   -0.4598 C.ar     1 ZINC000009540591   -0.1000
7      C7     -1.8739    5.3500   -0.6670 C.ar     1 ZINC000009540591   -0.1100
8      C8     -1.8155    5.8843   -1.9408 C.ar     1 ZINC000009540591   -0.0200
9      C9     -1.4499    5.0890   -3.0117 C.ar     1 ZINC000009540591   -0.6600
10     S10    -1.3772    5.7751   -4.6330 S.o2     1 ZINC000009540591    2.6900
11     O11    -1.5310    4.6886   -5.5358 O.2      1 ZINC000009540591   -0.9500
12     O12    -2.2341    6.9087   -4.6278 O.2      1 ZINC000009540591   -0.9500
13     N13     0.1596    6.3517   -4.8527 N.am     1 ZINC000009540591   -0.9900
14     C14     0.5002    7.7334   -4.4872 C.3      1 ZINC000009540591    0.1200
15     C15     1.7113    7.7111   -3.5494 C.3      1 ZINC000009540591   -0.1400
16     C16     2.8521    6.9375   -4.2144 C.3      1 ZINC000009540591   -0.1200
17     C17     2.4116    5.4941   -4.4688 C.3      1 ZINC000009540591   -0.1400
18     C18     1.2099    5.4894   -5.4113 C.3      1 ZINC000009540591    0.1200
19     C19    -1.1359    3.7595   -2.8107 C.ar     1 ZINC000009540591   -0.0300
20     C20     1.6646    2.1757   -0.3407 C.ar     1 ZINC000009540591   -0.6800
21     C21     2.5885    1.5525   -1.1584 C.ar     1 ZINC000009540591    0.0200
22     C22     3.8236    2.1340   -1.3761 C.ar     1 ZINC000009540591   -0.1600
23     C23     4.1354    3.3412   -0.7753 C.ar     1 ZINC000009540591    0.1700
24     F24     5.3420    3.9105   -0.9879 F        1 ZINC000009540591   -0.1100
25     C25     3.2085    3.9658    0.0441 C.ar     1 ZINC000009540591   -0.1000
26     Cl26    3.5972    5.4801    0.7988 Cl       1 ZINC000009540591   -0.0300
27     C27     1.9720    3.3843    0.2563 C.ar     1 ZINC000009540591    0.0200
28     H28    -1.2430    1.1950   -1.9230 H        1 ZINC000009540591    0.4300
29     H29    -1.6128    3.6025    0.5355 H        1 ZINC000009540591    0.1700
30     H30    -2.1604    5.9736    0.1670 H        1 ZINC000009540591    0.1400
31     H31    -2.0563    6.9251   -2.1001 H        1 ZINC000009540591    0.1400
32     H32     0.7444    8.2995   -5.3861 H        1 ZINC000009540591    0.0800
33     H33    -0.3463    8.1964   -3.9800 H        1 ZINC000009540591    0.0900
34     H34     2.0337    8.7325   -3.3473 H        1 ZINC000009540591    0.0800
35     H35     1.4380    7.2235   -2.6137 H        1 ZINC000009540591    0.0700
36     H36     3.1083    7.4113   -5.1620 H        1 ZINC000009540591    0.0700
37     H37     3.7234    6.9411   -3.5595 H        1 ZINC000009540591    0.0700
38     H38     3.2325    4.9375   -4.9210 H        1 ZINC000009540591    0.0800
39     H39     2.1317    5.0273   -3.5244 H        1 ZINC000009540591    0.0600
40     H40     0.8320    4.4724   -5.5165 H        1 ZINC000009540591    0.0900
41     H41     1.5091    5.8730   -6.3867 H        1 ZINC000009540591    0.0800
42     H42    -0.8506    3.1390   -3.6474 H        1 ZINC000009540591    0.1500
43     H43     2.3454    0.6105   -1.6272 H        1 ZINC000009540591    0.1600
44     H44     4.5452    1.6461   -2.0146 H        1 ZINC000009540591    0.1600
45     H45     1.2490    3.8706    0.8944 H        1 ZINC000009540591    0.1600
@<TRIPOS>BOND
1     1     2     2
2     2     3     2
3     2     4     am
4     2     20    1
5     4     5     1
6     4     28    1
7     5     19    ar
8     5     6     ar
9     6     7     ar
10    6     29    1
11    7     8     ar
12    7     30    1
13    8     9     ar
14    8     31    1
15    9     10    1
16    9     19    ar
17    10    11    2
18    10    12    2
19    10    13    am
20    13    18    1
21    13    14    1
22    14    15    1
23    14    32    1
24    14    33    1
25    15    16    1
26    15    34    1
27    15    35    1
28    16    17    1
29    16    36    1
30    16    37    1
31    17    18    1
32    17    38    1
33    17    39    1
34    18    40    1
35    18    41    1
36    19    42    1
37    20    27    ar
38    20    21    ar
39    21    22    ar
40    21    43    1
41    22    23    ar
42    22    44    1
43    23    24    1
44    23    25    ar
45    25    26    1
46    25    27    ar
47    27    45    1
@<TRIPOS>SUBSTRUCTURE
1   ZINC000009540591 1     RESIDUE    1   A     ZIN   1

@<TRIPOS>MOLECULE
ZINC000009540591
44    46    1     0     0
SMALL
USER_CHARGES
@<TRIPOS>ATOM
1      O1      0.0021   -0.0041    0.0020 O.2      1 ZINC000009540591   -1.0200
2      S2     -0.0172    1.4168    0.0098 S.o2     1 ZINC000009540591    2.6000
3      O3      1.1617    2.2101    0.0028 O.2      1 ZINC000009540591   -1.0200
4      N4     -0.9002    1.8797   -1.3124 N.pl3    1 ZINC000009540591   -1.0900
5      C5     -0.4169    1.6271   -2.5983 C.ar     1 ZINC000009540591    0.2600
6      C6      0.8013    0.9825   -2.7698 C.ar     1 ZINC000009540591   -0.2200
7      C7      1.2761    0.7338   -4.0428 C.ar     1 ZINC000009540591   -0.0800
8      C8      0.5401    1.1257   -5.1457 C.ar     1 ZINC000009540591   -0.1300
9      C9     -0.6733    1.7682   -4.9785 C.ar     1 ZINC000009540591   -0.6300
10     S10    -1.6072    2.2655   -6.3874 S.o2     1 ZINC000009540591    2.6900
11     O11    -2.4487    3.3266   -5.9569 O.2      1 ZINC000009540591   -0.9600
12     O12    -0.6814    2.3931   -7.4579 O.2      1 ZINC000009540591   -0.9700
13     N13    -2.6075    1.0061   -6.7819 N.am     1 ZINC000009540591   -1.0000
14     C14    -2.1636   -0.0386   -7.7147 C.3      1 ZINC000009540591    0.1200
15     C15    -2.3473   -1.4055   -7.0479 C.3      1 ZINC000009540591   -0.1400
16     C16    -3.7986   -1.5518   -6.5848 C.3      1 ZINC000009540591   -0.1100
17     C17    -4.1195   -0.4654   -5.5558 C.3      1 ZINC000009540591   -0.1400
18     C18    -3.9536    0.9089   -6.2010 C.3      1 ZINC000009540591    0.1200
19     C19    -1.1565    2.0148   -3.7087 C.ar     1 ZINC000009540591   -0.0800
20     C20    -0.9297    1.8941    1.4396 C.ar     1 ZINC000009540591   -0.6200
21     C21    -0.7358    3.1441    1.9969 C.ar     1 ZINC000009540591    0.0100
22     C22    -1.4508    3.5203    3.1186 C.ar     1 ZINC000009540591   -0.1700
23     C23    -2.3618    2.6451    3.6840 C.ar     1 ZINC000009540591    0.1500
24     F24    -3.0613    3.0121    4.7799 F        1 ZINC000009540591   -0.1200
25     C25    -2.5561    1.3921    3.1245 C.ar     1 ZINC000009540591   -0.1000
26     Cl26   -3.6982    0.2926    3.8318 Cl       1 ZINC000009540591   -0.0500
27     C27    -1.8430    1.0202    1.9996 C.ar     1 ZINC000009540591    0.0200
28     H28     1.3770    0.6765   -1.9087 H        1 ZINC000009540591    0.1000
29     H29     2.2235    0.2330   -4.1769 H        1 ZINC000009540591    0.1100
30     H30     0.9136    0.9301   -6.1399 H        1 ZINC000009540591    0.1200
31     H31    -2.7608    0.0069   -8.6254 H        1 ZINC000009540591    0.0700
32     H32    -1.1115    0.1111   -7.9573 H        1 ZINC000009540591    0.0900
33     H33    -2.1125   -2.1938   -7.7632 H        1 ZINC000009540591    0.0700
34     H34    -1.6816   -1.4835   -6.1884 H        1 ZINC000009540591    0.0700
35     H35    -4.4652   -1.4491   -7.4412 H        1 ZINC000009540591    0.0600
36     H36    -3.9382   -2.5334   -6.1320 H        1 ZINC000009540591    0.0600
37     H37    -5.1460   -0.5844   -5.2091 H        1 ZINC000009540591    0.0700
38     H38    -3.4371   -0.5522   -4.7103 H        1 ZINC000009540591    0.0700
39     H39    -4.0844    1.6849   -5.4467 H        1 ZINC000009540591    0.0900
40     H40    -4.6954    1.0343   -6.9897 H        1 ZINC000009540591    0.0700
41     H41    -2.1040    2.5166   -3.5788 H        1 ZINC000009540591    0.1300
42     H42    -0.0250    3.8272    1.5558 H        1 ZINC000009540591    0.1600
43     H43    -1.2983    4.4969    3.5538 H        1 ZINC000009540591    0.1500
44     H44    -1.9941    0.0441    1.5628 H        1 ZINC000009540591    0.1600
@<TRIPOS>BOND
1     1     2     2
2     2     3     2
3     2     4     1
4     2     20    1
5     4     5     1
6     5     19    ar
7     5     6     ar
8     6     7     ar
9     6     28    1
10    7     8     ar
11    7     29    1
12    8     9     ar
13    8     30    1
14    9     10    1
15    9     19    ar
16    10    11    2
17    10    12    2
18    10    13    am
19    13    18    1
20    13    14    1
21    14    15    1
22    14    31    1
23    14    32    1
24    15    16    1
25    15    33    1
26    15    34    1
27    16    17    1
28    16    35    1
29    16    36    1
30    17    18    1
31    17    37    1
32    17    38    1
33    18    39    1
34    18    40    1
35    19    41    1
36    20    27    ar
37    20    21    ar
38    21    22    ar
39    21    42    1
40    22    23    ar
41    22    43    1
42    23    24    1
43    23    25    ar
44    25    26    1
45    25    27    ar
46    27    44    1
@<TRIPOS>SUBSTRUCTURE
1   ZINC000009540591 1     RESIDUE    1   A     ZIN   1
@<TRIPOS>MOLECULE
ZINC000012548507
47    49    1     0     0
SMALL
USER_CHARGES
@<TRIPOS>ATOM
1      C1     -0.1065    1.3138   -0.0253 C.3      1 ZINC000012548507    0.0200
2      O2     -0.0616   -0.1145   -0.0273 O.3      1 ZINC000012548507   -0.3000
3      C3      0.5554   -0.7110   -1.0813 C.ar     1 ZINC000012548507    0.1900
4      C4      1.1111    0.0624   -2.0894 C.ar     1 ZINC000012548507   -0.2300
5      C5      1.7379   -0.5463   -3.1600 C.ar     1 ZINC000012548507    0.0300
6      C6      1.8112   -1.9251   -3.2273 C.ar     1 ZINC000012548507   -0.6500
7      S7      2.6107   -2.6976   -4.5943 S.o2     1 ZINC000012548507    2.6100
8      O8      2.0698   -4.0084   -4.6871 O.2      1 ZINC000012548507   -1.0200
9      O9      2.5702   -1.7626   -5.6636 O.2      1 ZINC000012548507   -1.0300
10     N10     4.2067   -2.8778   -4.1908 N.pl3    1 ZINC000012548507   -1.0600
11     C11     5.0880   -3.4649   -5.0893 C.ar     1 ZINC000012548507    0.3200
12     C12     4.6359   -3.8971   -6.3297 C.ar     1 ZINC000012548507   -0.2700
13     C13     5.5137   -4.4801   -7.2207 C.ar     1 ZINC000012548507   -0.0500
14     C14     6.8491   -4.6397   -6.8874 C.ar     1 ZINC000012548507   -0.2300
15     C15     7.3162   -4.2173   -5.6618 C.ar     1 ZINC000012548507   -0.0400
16     C16     6.4417   -3.6194   -4.7511 C.ar     1 ZINC000012548507   -0.2100
17     C17     6.9348   -3.1647   -3.4382 C.2      1 ZINC000012548507    0.5900
18     O18     6.3896   -3.5435   -2.4194 O.2      1 ZINC000012548507   -0.5200
19     N19     7.9900   -2.3292   -3.3672 N.am     1 ZINC000012548507   -0.6200
20     C20     8.5757   -1.7577   -4.5874 C.3      1 ZINC000012548507    0.1100
21     C21     8.6257   -0.2334   -4.4432 C.3      1 ZINC000012548507   -0.1400
22     C22     9.3730    0.1292   -3.1579 C.3      1 ZINC000012548507   -0.1200
23     C23     8.6263   -0.4458   -1.9521 C.3      1 ZINC000012548507   -0.1300
24     C24     8.5725   -1.9677   -2.0677 C.3      1 ZINC000012548507    0.1200
25     C25     1.2585   -2.6991   -2.2235 C.ar     1 ZINC000012548507    0.0500
26     C26     0.6355   -2.0954   -1.1477 C.ar     1 ZINC000012548507   -0.1500
27     Br27   -0.1202   -3.1541    0.2248 Br       1 ZINC000012548507   -0.0400
28     H28     0.9093    1.7092   -0.0321 H        1 ZINC000012548507    0.0600
29     H29    -0.6378    1.6619   -0.9111 H        1 ZINC000012548507    0.0600
30     H30    -0.6250    1.6597    0.8689 H        1 ZINC000012548507    0.1000
31     H31     1.0537    1.1396   -2.0380 H        1 ZINC000012548507    0.1400
32     H32     2.1707    0.0558   -3.9452 H        1 ZINC000012548507    0.1500
33     H33     3.5964   -3.7769   -6.5968 H        1 ZINC000012548507    0.1000
34     H34     5.1574   -4.8145   -8.1839 H        1 ZINC000012548507    0.1100
35     H35     7.5275   -5.0980   -7.5919 H        1 ZINC000012548507    0.1100
36     H36     8.3581   -4.3442   -5.4073 H        1 ZINC000012548507    0.1100
37     H37     9.5854   -2.1450   -4.7242 H        1 ZINC000012548507    0.0600
38     H38     7.9606   -2.0234   -5.4472 H        1 ZINC000012548507    0.1000
39     H39     9.1453    0.1963   -5.2997 H        1 ZINC000012548507    0.0700
40     H40     7.6107    0.1612   -4.3975 H        1 ZINC000012548507    0.0700
41     H41    10.3799   -0.2868   -3.1936 H        1 ZINC000012548507    0.0600
42     H42     9.4315    1.2137   -3.0654 H        1 ZINC000012548507    0.0600
43     H43     9.1463   -0.1674   -1.0355 H        1 ZINC000012548507    0.0700
44     H44     7.6112   -0.0492   -1.9299 H        1 ZINC000012548507    0.0700
45     H45     7.9575   -2.3737   -1.2645 H        1 ZINC000012548507    0.0900
46     H46     9.5812   -2.3752   -2.0000 H        1 ZINC000012548507    0.0600
47     H47     1.3170   -3.7762   -2.2783 H        1 ZINC000012548507    0.1500
@<TRIPOS>BOND
1     1     2     1
2     1     28    1
3     1     29    1
4     1     30    1
5     2     3     1
6     3     26    ar
7     3     4     ar
8     4     5     ar
9     4     31    1
10    5     6     ar
11    5     32    1
12    6     7     1
13    6     25    ar
14    7     8     2
15    7     9     2
16    7     10    1
17    10    11    1
18    11    16    ar
19    11    12    ar
20    12    13    ar
21    12    33    1
22    13    14    ar
23    13    34    1
24    14    15    ar
25    14    35    1
26    15    16    ar
27    15    36    1
28    16    17    1
29    17    18    2
30    17    19    am
31    19    24    1
32    19    20    1
33    20    21    1
34    20    37    1
35    20    38    1
36    21    22    1
37    21    39    1
38    21    40    1
39    22    23    1
40    22    41    1
41    22    42    1
42    23    24    1
43    23    43    1
44    23    44    1
45    24    45    1
46    24    46    1
47    25    26    ar
48    25    47    1
49    26    27    1
@<TRIPOS>SUBSTRUCTURE
1   ZINC000012548507 1     RESIDUE    1   A     ZIN   1
@<TRIPOS>MOLECULE
ZINC000016121877
55    58    1     0     0
SMALL
USER_CHARGES
@<TRIPOS>ATOM
1      C1     -0.0294    1.4684   -0.0242 C.3      1 ZINC000016121877   -0.1500
2      C2     -0.0574   -0.0606    0.0213 C.3      1 ZINC000016121877   -0.1000
3      H3     -1.0906   -0.4042    0.0722 H        1 ZINC000016121877    0.0800
4      C4      0.6059   -0.6214   -1.2387 C.3      1 ZINC000016121877   -0.1100
5      C5      0.5492   -2.1505   -1.2097 C.3      1 ZINC000016121877   -0.1300
6      C6      1.3196   -2.6630    0.0112 C.3      1 ZINC000016121877    0.1200
7      N7      0.7814   -2.0162    1.2157 N.am     1 ZINC000016121877   -1.0000
8      S8      0.2699   -2.9232    2.5034 S.o2     1 ZINC000016121877    2.6900
9      O9     -0.6582   -2.1183    3.2176 O.2      1 ZINC000016121877   -0.9500
10     O10    -0.0513   -4.2075    1.9872 O.2      1 ZINC000016121877   -0.9500
11     C11     1.6565   -3.1470    3.5673 C.ar     1 ZINC000016121877   -0.6900
12     C12     2.4935   -4.2334    3.3902 C.ar     1 ZINC000016121877    0.0000
13     C13     3.5812   -4.4119    4.2224 C.ar     1 ZINC000016121877   -0.1500
14     C14     3.8339   -3.4986    5.2381 C.ar     1 ZINC000016121877    0.2000
15     N15     4.9333   -3.6758    6.0812 N.am     1 ZINC000016121877   -1.0600
16     S16     5.9272   -2.3968    6.4256 S.o2     1 ZINC000016121877    2.6900
17     O17     5.0849   -1.3426    6.8711 O.2      1 ZINC000016121877   -0.9400
18     O18     6.9970   -2.9178    7.2024 O.2      1 ZINC000016121877   -0.9400
19     C19     6.6332   -1.8600    4.9031 C.ar     1 ZINC000016121877   -0.6800
20     C20     7.7646   -2.4808    4.4084 C.ar     1 ZINC000016121877   -0.0200
21     C21     8.3162   -2.0586    3.2143 C.ar     1 ZINC000016121877   -0.1300
22     C22     7.7393   -1.0150    2.5106 C.ar     1 ZINC000016121877   -0.0300
23     C23     8.1432   -0.3736    1.2004 C.3      1 ZINC000016121877   -0.0900
24     C24     6.8967    0.4064    0.7313 C.3      1 ZINC000016121877   -0.1200
25     C25     6.1738    0.7068    2.0615 C.3      1 ZINC000016121877   -0.0800
26     C26     6.6075   -0.3941    3.0055 C.ar     1 ZINC000016121877   -0.1200
27     C27     6.0531   -0.8220    4.1999 C.ar     1 ZINC000016121877    0.0000
28     C28     2.9910   -2.4084    5.4131 C.ar     1 ZINC000016121877   -0.1700
29     C29     1.9083   -2.2329    4.5739 C.ar     1 ZINC000016121877    0.0000
30     C30     0.7054   -0.5494    1.2566 C.3      1 ZINC000016121877    0.1200
31     H31     1.0039    1.8116   -0.0751 H        1 ZINC000016121877    0.0600
32     H32    -0.5714    1.8157   -0.9039 H        1 ZINC000016121877    0.0600
33     H33    -0.5009    1.8674    0.8739 H        1 ZINC000016121877    0.0600
34     H34     0.0793   -0.2551   -2.1200 H        1 ZINC000016121877    0.0700
35     H35     1.6459   -0.2972   -1.2765 H        1 ZINC000016121877    0.0600
36     H36    -0.4895   -2.4749   -1.1469 H        1 ZINC000016121877    0.0700
37     H37     1.0009   -2.5486   -2.1183 H        1 ZINC000016121877    0.0800
38     H38     1.1996   -3.7433    0.0920 H        1 ZINC000016121877    0.0900
39     H39     2.3764   -2.4175   -0.0941 H        1 ZINC000016121877    0.0700
40     H40     2.2963   -4.9433    2.6006 H        1 ZINC000016121877    0.1500
41     H41     4.2344   -5.2607    4.0838 H        1 ZINC000016121877    0.1400
42     H42     5.1146   -4.5480    6.4649 H        1 ZINC000016121877    0.4300
43     H43     8.2173   -3.2949    4.9550 H        1 ZINC000016121877    0.1400
44     H44     9.2005   -2.5440    2.8285 H        1 ZINC000016121877    0.1300
45     H45     8.9798    0.3078    1.3550 H        1 ZINC000016121877    0.0900
46     H46     8.4075   -1.1387    0.4704 H        1 ZINC000016121877    0.0800
47     H47     7.1840    1.3302    0.2292 H        1 ZINC000016121877    0.0800
48     H48     6.2746   -0.2109    0.0831 H        1 ZINC000016121877    0.0800
49     H49     6.4807    1.6788    2.4476 H        1 ZINC000016121877    0.0900
50     H50     5.0934    0.6794    1.9195 H        1 ZINC000016121877    0.0800
51     H51     5.1663   -0.3405    4.5848 H        1 ZINC000016121877    0.1400
52     H52     3.1844   -1.6967    6.2021 H        1 ZINC000016121877    0.1700
53     H53     1.2526   -1.3855    4.7094 H        1 ZINC000016121877    0.1500
54     H54     1.7120   -0.1311    1.2528 H        1 ZINC000016121877    0.0700
55     H55     0.1806   -0.2357    2.1590 H        1 ZINC000016121877    0.0900
@<TRIPOS>BOND
1     1     2     1
2     1     31    1
3     1     32    1
4     1     33    1
5     2     3     1
6     2     30    1
7     2     4     1
8     4     5     1
9     4     34    1
10    4     35    1
11    5     6     1
12    5     36    1
13    5     37    1
14    6     7     1
15    6     38    1
16    6     39    1
17    7     8     am
18    7     30    1
19    8     9     2
20    8     10    2
21    8     11    1
22    11    29    ar
23    11    12    ar
24    12    13    ar
25    12    40    1
26    13    14    ar
27    13    41    1
28    14    15    1
29    14    28    ar
30    15    16    am
31    15    42    1
32    16    17    2
33    16    18    2
34    16    19    1
35    19    27    ar
36    19    20    ar
37    20    21    ar
38    20    43    1
39    21    22    ar
40    21    44    1
41    22    26    ar
42    22    23    1
43    23    24    1
44    23    45    1
45    23    46    1
46    24    25    1
47    24    47    1
48    24    48    1
49    25    26    1
50    25    49    1
51    25    50    1
52    26    27    ar
53    27    51    1
54    28    29    ar
55    28    52    1
56    29    53    1
57    30    54    1
58    30    55    1
@<TRIPOS>SUBSTRUCTURE
1   ZINC000016121877 1     RESIDUE    1   A     ZIN   1

@<TRIPOS>MOLECULE
ZINC000016121877
54    57    1     0     0
SMALL
USER_CHARGES
@<TRIPOS>ATOM
1      C1     -0.0187    1.5258    0.0104 C.3      1 ZINC000016121877   -0.1500
2      C2      0.0021   -0.0041    0.0020 C.3      1 ZINC000016121877   -0.1100
3      H3     -1.0203   -0.3818    0.0098 H        1 ZINC000016121877    0.0700
4      C4      0.7197   -0.4983   -1.2561 C.3      1 ZINC000016121877   -0.1100
5      C5      0.7122   -2.0284   -1.2819 C.3      1 ZINC000016121877   -0.1300
6      C6      1.4632   -2.5595   -0.0568 C.3      1 ZINC000016121877    0.1200
7      N7      0.8694   -1.9734    1.1526 N.am     1 ZINC000016121877   -1.0000
8      S8      0.3506   -2.9415    2.3919 S.o2     1 ZINC000016121877    2.7000
9      O9     -0.6237   -2.1924    3.1054 O.2      1 ZINC000016121877   -0.9700
10     O10     0.0867   -4.2162    1.8220 O.2      1 ZINC000016121877   -0.9700
11     C11     1.7122   -3.1591    3.4888 C.ar     1 ZINC000016121877   -0.7700
12     C12     2.5892   -4.2115    3.2995 C.ar     1 ZINC000016121877    0.0100
13     C13     3.6574   -4.3850    4.1574 C.ar     1 ZINC000016121877   -0.2000
14     C14     3.8505   -3.5009    5.2114 C.ar     1 ZINC000016121877    0.3300
15     N15     4.9302   -3.6732    6.0806 N.pl3    1 ZINC000016121877   -1.0800
16     S16     5.1586   -2.6182    7.3365 S.o2     1 ZINC000016121877    2.6100
17     O17     5.4784   -1.3627    6.7527 O.2      1 ZINC000016121877   -1.0200
18     O18     4.0642   -2.8068    8.2231 O.2      1 ZINC000016121877   -1.0200
19     C19     6.5987   -3.1446    8.2045 C.ar     1 ZINC000016121877   -0.6200
20     C20     6.4877   -4.0470    9.2455 C.ar     1 ZINC000016121877   -0.0200
21     C21     7.6182   -4.4588    9.9244 C.ar     1 ZINC000016121877   -0.1300
22     C22     8.8630   -3.9704    9.5656 C.ar     1 ZINC000016121877   -0.0600
23     C23    10.2330   -4.2583   10.1413 C.3      1 ZINC000016121877   -0.0800
24     C24    11.2317   -3.7784    9.0668 C.3      1 ZINC000016121877   -0.1200
25     C25    10.4262   -2.6877    8.3293 C.3      1 ZINC000016121877   -0.0800
26     C26     8.9741   -3.0677    8.5242 C.ar     1 ZINC000016121877   -0.1300
27     C27     7.8405   -2.6602    7.8416 C.ar     1 ZINC000016121877   -0.0100
28     C28     2.9677   -2.4449    5.3986 C.ar     1 ZINC000016121877   -0.2800
29     C29     1.9047   -2.2739    4.5337 C.ar     1 ZINC000016121877    0.0300
30     C30     0.7443   -0.5122    1.2421 C.3      1 ZINC000016121877    0.1200
31     H31     1.0039    1.9031    0.0027 H        1 ZINC000016121877    0.0600
32     H32    -0.5459    1.8868   -0.8726 H        1 ZINC000016121877    0.0600
33     H33    -0.5289    1.8773    0.9072 H        1 ZINC000016121877    0.0600
34     H34     0.2072   -0.1177   -2.1396 H        1 ZINC000016121877    0.0600
35     H35     1.7492   -0.1402   -1.2513 H        1 ZINC000016121877    0.0600
36     H36    -0.3167   -2.3876   -1.2618 H        1 ZINC000016121877    0.0700
37     H37     1.2029   -2.3794   -2.1897 H        1 ZINC000016121877    0.0700
38     H38     1.3762   -3.6453   -0.0173 H        1 ZINC000016121877    0.0900
39     H39     2.5140   -2.2771   -0.1216 H        1 ZINC000016121877    0.0700
40     H40     2.4383   -4.8986    2.4801 H        1 ZINC000016121877    0.1200
41     H41     4.3418   -5.2072    4.0092 H        1 ZINC000016121877    0.1200
42     H42     5.5181   -4.4296    9.5281 H        1 ZINC000016121877    0.1400
43     H43     7.5306   -5.1636   10.7380 H        1 ZINC000016121877    0.1200
44     H44    10.3783   -3.7028   11.0678 H        1 ZINC000016121877    0.0800
45     H45    10.3521   -5.3273   10.3177 H        1 ZINC000016121877    0.0800
46     H46    12.1240   -3.3556    9.5284 H        1 ZINC000016121877    0.0800
47     H47    11.4928   -4.5917    8.3897 H        1 ZINC000016121877    0.0700
48     H48    10.6236   -1.7098    8.7685 H        1 ZINC000016121877    0.0800
49     H49    10.6772   -2.6844    7.2686 H        1 ZINC000016121877    0.0800
50     H50     7.9270   -1.9587    7.0251 H        1 ZINC000016121877    0.1300
51     H51     3.1147   -1.7560    6.2173 H        1 ZINC000016121877    0.1000
52     H52     1.2179   -1.4531    4.6787 H        1 ZINC000016121877    0.1200
53     H53     1.7363   -0.0624    1.2831 H        1 ZINC000016121877    0.0700
54     H54     0.1835   -0.2477    2.1385 H        1 ZINC000016121877    0.0900
@<TRIPOS>BOND
1     1     2     1
2     1     31    1
3     1     32    1
4     1     33    1
5     2     3     1
6     2     30    1
7     2     4     1
8     4     5     1
9     4     34    1
10    4     35    1
11    5     6     1
12    5     36    1
13    5     37    1
14    6     7     1
15    6     38    1
16    6     39    1
17    7     8     am
18    7     30    1
19    8     9     2
20    8     10    2
21    8     11    1
22    11    29    ar
23    11    12    ar
24    12    13    ar
25    12    40    1
26    13    14    ar
27    13    41    1
28    14    15    1
29    14    28    ar
30    15    16    1
31    16    17    2
32    16    18    2
33    16    19    1
34    19    27    ar
35    19    20    ar
36    20    21    ar
37    20    42    1
38    21    22    ar
39    21    43    1
40    22    26    ar
41    22    23    1
42    23    24    1
43    23    44    1
44    23    45    1
45    24    25    1
46    24    46    1
47    24    47    1
48    25    26    1
49    25    48    1
50    25    49    1
51    26    27    ar
52    27    50    1
53    28    29    ar
54    28    51    1
55    29    52    1
56    30    53    1
57    30    54    1
@<TRIPOS>SUBSTRUCTURE
1   ZINC000016121877 1     RESIDUE    1   A     ZIN   1
@<TRIPOS>MOLECULE
ZINC000016400944
33    34    1     0     0
SMALL
USER_CHARGES
@<TRIPOS>ATOM
1      C1      2.4350   -1.1415    2.7065 C.3      1 ZINC000016400944    0.0200
2      O2      2.6687   -2.4317    2.1384 O.3      1 ZINC000016400944   -0.2900
3      C3      2.6667   -2.5183    0.7821 C.ar     1 ZINC000016400944    0.2200
4      C4      2.4502   -1.3840    0.0139 C.ar     1 ZINC000016400944   -0.2200
5      C5      2.4486   -1.4745   -1.3649 C.ar     1 ZINC000016400944    0.0400
6      C6      2.6626   -2.6944   -1.9791 C.ar     1 ZINC000016400944   -0.7200
7      S7      2.6605   -2.8060   -3.7376 S.o2     1 ZINC000016400944    2.6900
8      O8      2.2242   -4.1204   -4.0557 O.2      1 ZINC000016400944   -0.9400
9      O9      2.0109   -1.6350   -4.2132 O.2      1 ZINC000016400944   -0.9400
10     N10     4.2359   -2.7025   -4.2372 N.am     1 ZINC000016400944   -1.0600
11     C11     4.9650   -1.5329   -4.0105 C.ar     1 ZINC000016400944    0.1300
12     C12     4.7257   -0.4030   -4.7818 C.ar     1 ZINC000016400944   -0.0500
13     C13     5.4483    0.7521   -4.5546 C.ar     1 ZINC000016400944   -0.1000
14     C14     6.4089    0.7842   -3.5606 C.ar     1 ZINC000016400944   -0.0500
15     C15     6.6497   -0.3392   -2.7907 C.ar     1 ZINC000016400944   -0.0400
16     N16     7.6789   -0.3002   -1.7278 N.pl3    1 ZINC000016400944    0.0300
17     O17     8.3133    0.7209   -1.5316 O.2      1 ZINC000016400944   -0.1500
18     O18     7.8916   -1.2891   -1.0494 O.2      1 ZINC000016400944   -0.1500
19     C19     5.9273   -1.4956   -3.0090 C.ar     1 ZINC000016400944   -0.0500
20     C20     2.8788   -3.8271   -1.2159 C.ar     1 ZINC000016400944    0.0600
21     C21     2.8870   -3.7410    0.1631 C.ar     1 ZINC000016400944   -0.1600
22     I22     3.2146   -5.4573    1.3189 I        1 ZINC000016400944    0.0000
23     H23     3.2067   -0.4502    2.3678 H        1 ZINC000016400944    0.0600
24     H24     1.4572   -0.7773    2.3912 H        1 ZINC000016400944    0.0600
25     H25     2.4629   -1.2128    3.7938 H        1 ZINC000016400944    0.1100
26     H26     2.2826   -0.4307    0.4931 H        1 ZINC000016400944    0.1500
27     H27     2.2797   -0.5915   -1.9633 H        1 ZINC000016400944    0.1500
28     H28     4.6523   -3.4540   -4.6874 H        1 ZINC000016400944    0.4300
29     H29     3.9758   -0.4275   -5.5586 H        1 ZINC000016400944    0.1600
30     H30     5.2630    1.6310   -5.1542 H        1 ZINC000016400944    0.1600
31     H31     6.9727    1.6886   -3.3853 H        1 ZINC000016400944    0.1600
32     H32     6.1159   -2.3725   -2.4075 H        1 ZINC000016400944    0.1600
33     H33     3.0453   -4.7790   -1.6981 H        1 ZINC000016400944    0.1500
@<TRIPOS>BOND
1     1     2     1
2     1     23    1
3     1     24    1
4     1     25    1
5     2     3     1
6     3     21    ar
7     3     4     ar
8     4     5     ar
9     4     26    1
10    5     6     ar
11    5     27    1
12    6     7     1
13    6     20    ar
14    7     8     2
15    7     9     2
16    7     10    am
17    10    11    1
18    10    28    1
19    11    19    ar
20    11    12    ar
21    12    13    ar
22    12    29    1
23    13    14    ar
24    13    30    1
25    14    15    ar
26    14    31    1
27    15    16    1
28    15    19    ar
29    16    17    2
30    16    18    2
31    19    32    1
32    20    21    ar
33    20    33    1
34    21    22    1
@<TRIPOS>SUBSTRUCTURE
1   ZINC000016400944 1     RESIDUE    1   A     ZIN   1

@<TRIPOS>MOLECULE
ZINC000016400944
32    33    1     0     0
SMALL
USER_CHARGES
@<TRIPOS>ATOM
1      C1     -0.0173    1.4248    0.0099 C.3      1 ZINC000016400944    0.0200
2      O2      0.0021   -0.0041    0.0020 O.3      1 ZINC000016400944   -0.3000
3      C3      0.6259   -0.6184    1.0416 C.ar     1 ZINC000016400944    0.2000
4      C4      1.2022    0.1381    2.0510 C.ar     1 ZINC000016400944   -0.2300
5      C5      1.8359   -0.4888    3.1068 C.ar     1 ZINC000016400944    0.0400
6      C6      1.8958   -1.8690    3.1578 C.ar     1 ZINC000016400944   -0.6500
7      S7      2.7042   -2.6650    4.5060 S.o2     1 ZINC000016400944    2.6100
8      O8      3.0901   -3.9507    4.0399 O.2      1 ZINC000016400944   -1.0200
9      O9      3.6255   -1.7213    5.0352 O.2      1 ZINC000016400944   -1.0200
10     N10     1.5650   -2.9161    5.6814 N.pl3    1 ZINC000016400944   -1.0800
11     C11     1.9234   -3.5373    6.8799 C.ar     1 ZINC000016400944    0.2800
12     C12     3.2361   -3.9397    7.0899 C.ar     1 ZINC000016400944   -0.2200
13     C13     3.5872   -4.5533    8.2765 C.ar     1 ZINC000016400944   -0.0600
14     C14     2.6337   -4.7670    9.2547 C.ar     1 ZINC000016400944   -0.1700
15     C15     1.3257   -4.3675    9.0489 C.ar     1 ZINC000016400944    0.0000
16     N16     0.3084   -4.5982   10.0988 N.pl3    1 ZINC000016400944    0.0400
17     O17     0.6233   -5.1397   11.1434 O.2      1 ZINC000016400944   -0.1800
18     O18    -0.8437   -4.2467    9.9183 O.2      1 ZINC000016400944   -0.1800
19     C19     0.9690   -3.7488    7.8671 C.ar     1 ZINC000016400944   -0.1200
20     C20     1.3221   -2.6260    2.1528 C.ar     1 ZINC000016400944    0.0500
21     C21     0.6823   -2.0042    1.0977 C.ar     1 ZINC000016400944   -0.1600
22     I22    -0.1868   -3.1515   -0.4246 I        1 ZINC000016400944   -0.0300
23     H23     1.0053    1.8021    0.0021 H        1 ZINC000016400944    0.0600
24     H24    -0.5445    1.7859   -0.8732 H        1 ZINC000016400944    0.1000
25     H25    -0.5275    1.7763    0.9067 H        1 ZINC000016400944    0.0600
26     H26     1.1560    1.2164    2.0117 H        1 ZINC000016400944    0.1400
27     H27     2.2851    0.1001    3.8929 H        1 ZINC000016400944    0.1500
28     H28     3.9813   -3.7735    6.3261 H        1 ZINC000016400944    0.1100
29     H29     4.6077   -4.8668    8.4403 H        1 ZINC000016400944    0.1300
30     H30     2.9109   -5.2473   10.1815 H        1 ZINC000016400944    0.1300
31     H31    -0.0526   -3.4370    7.7070 H        1 ZINC000016400944    0.1400
32     H32     1.3706   -3.7041    2.1947 H        1 ZINC000016400944    0.1500
@<TRIPOS>BOND
1     1     2     1
2     1     23    1
3     1     24    1
4     1     25    1
5     2     3     1
6     3     21    ar
7     3     4     ar
8     4     5     ar
9     4     26    1
10    5     6     ar
11    5     27    1
12    6     7     1
13    6     20    ar
14    7     8     2
15    7     9     2
16    7     10    1
17    10    11    1
18    11    19    ar
19    11    12    ar
20    12    13    ar
21    12    28    1
22    13    14    ar
23    13    29    1
24    14    15    ar
25    14    30    1
26    15    16    1
27    15    19    ar
28    16    17    2
29    16    18    2
30    19    31    1
31    20    21    ar
32    20    32    1
33    21    22    1
@<TRIPOS>SUBSTRUCTURE
1   ZINC000016400944 1     RESIDUE    1   A     ZIN   1
@<TRIPOS>MOLECULE
ZINC000019080177
37    40    1     0     0
SMALL
USER_CHARGES
@<TRIPOS>ATOM
1      O1      0.0021   -0.0041    0.0020 O.2      1 ZINC000019080177   -1.0300
2      S2     -0.0172    1.4168    0.0098 S.o2     1 ZINC000019080177    2.6000
3      O3      1.1617    2.2101    0.0028 O.2      1 ZINC000019080177   -1.0100
4      N4     -0.9002    1.8797   -1.3124 N.pl3    1 ZINC000019080177   -1.0200
5      C5     -0.4166    1.6269   -2.5992 C.ar     1 ZINC000019080177    0.2900
6      C6      0.8002    0.9832   -2.7712 C.ar     1 ZINC000019080177   -0.2100
7      C7      1.2761    0.7339   -4.0447 C.ar     1 ZINC000019080177   -0.1300
8      C8      2.5981    0.0344   -4.2292 C.3      1 ZINC000019080177    0.5100
9      F9      2.3901   -1.3478   -4.2887 F        1 ZINC000019080177   -0.1800
10     F10     3.1931    0.4681   -5.4188 F        1 ZINC000019080177   -0.1800
11     F11     3.4384    0.3336   -3.1514 F        1 ZINC000019080177   -0.1800
12     C12     0.5425    1.1239   -5.1499 C.ar     1 ZINC000019080177   -0.1600
13     C13    -0.6708    1.7664   -4.9880 C.ar     1 ZINC000019080177   -0.0900
14     C14    -1.1586    2.0160   -3.7145 C.ar     1 ZINC000019080177    0.1000
15     N15    -2.3900    2.6675   -3.5479 N.pl3    1 ZINC000019080177   -0.2800
16     C16    -3.2022    3.0989   -4.5386 C.2      1 ZINC000019080177    0.0200
17     C17    -4.2857    3.6710   -3.9633 C.2      1 ZINC000019080177   -0.2800
18     C18    -4.1312    3.5868   -2.5755 C.2      1 ZINC000019080177   -0.0100
19     N19    -2.9982    2.9807   -2.3254 N.2      1 ZINC000019080177   -0.2000
20     C20    -0.9297    1.8941    1.4396 C.ar     1 ZINC000019080177   -0.5600
21     C21    -1.4132    0.9498    2.2825 C.ar     1 ZINC000019080177    0.0000
22     C22    -2.1396    1.2917    3.4233 C.ar     1 ZINC000019080177   -0.1200
23     C23    -2.3955    2.5839    3.7409 C.ar     1 ZINC000019080177   -0.0300
24     C24    -1.9200    3.6248    2.9041 C.ar     1 ZINC000019080177    0.0600
25     N25    -2.0393    4.9392    3.0002 N.2      1 ZINC000019080177   -0.6000
26     S26    -1.3194    5.6132    1.7974 S.3      1 ZINC000019080177    0.7900
27     N27    -0.7959    4.3542    1.0489 N.2      1 ZINC000019080177   -0.5500
28     C28    -1.1540    3.2669    1.7129 C.ar     1 ZINC000019080177    0.1500
29     H29     1.3757    0.6771   -1.9101 H        1 ZINC000019080177    0.1200
30     H30     0.9187    0.9264   -6.1428 H        1 ZINC000019080177    0.1300
31     H31    -1.2407    2.0703   -5.8536 H        1 ZINC000019080177    0.1300
32     H32    -3.0192    3.0046   -5.5988 H        1 ZINC000019080177    0.1700
33     H33    -5.1218    4.1142   -4.4838 H        1 ZINC000019080177    0.1400
34     H34    -4.8285    3.9550   -1.8375 H        1 ZINC000019080177    0.1700
35     H35    -1.2322   -0.0927    2.0657 H        1 ZINC000019080177    0.1500
36     H36    -2.5071    0.5076    4.0687 H        1 ZINC000019080177    0.1400
37     H37    -2.9611    2.8205    4.6300 H        1 ZINC000019080177    0.1400
@<TRIPOS>BOND
1     1     2     2
2     2     3     2
3     2     4     1
4     2     20    1
5     4     5     1
6     5     14    ar
7     5     6     ar
8     6     7     ar
9     6     29    1
10    7     8     1
11    7     12    ar
12    8     9     1
13    8     10    1
14    8     11    1
15    12    13    ar
16    12    30    1
17    13    14    ar
18    13    31    1
19    14    15    1
20    15    19    1
21    15    16    1
22    16    17    2
23    16    32    1
24    17    18    1
25    17    33    1
26    18    19    2
27    18    34    1
28    20    28    ar
29    20    21    ar
30    21    22    ar
31    21    35    1
32    22    23    ar
33    22    36    1
34    23    24    ar
35    23    37    1
36    24    28    ar
37    24    25    2
38    25    26    1
39    26    27    1
40    27    28    2
@<TRIPOS>SUBSTRUCTURE
1   ZINC000019080177 1     RESIDUE    1   A     ZIN   1

@<TRIPOS>MOLECULE
ZINC000019080177
38    41    1     0     0
SMALL
USER_CHARGES
@<TRIPOS>ATOM
1      O1     -0.3161   -0.0198    0.1508 O.2      1 ZINC000019080177   -0.9500
2      S2     -0.6090    1.3681    0.2354 S.o2     1 ZINC000019080177    2.7000
3      O3      0.2792    2.3162    0.8110 O.2      1 ZINC000019080177   -0.9300
4      N4     -0.9002    1.8797   -1.3124 N.am     1 ZINC000019080177   -1.0400
5      C5     -1.2293    3.2161   -1.5564 C.ar     1 ZINC000019080177    0.1500
6      C6     -0.2986    4.2167   -1.3171 C.ar     1 ZINC000019080177   -0.0200
7      C7     -0.6262    5.5374   -1.5597 C.ar     1 ZINC000019080177   -0.1800
8      C8      0.3863    6.6227   -1.2991 C.3      1 ZINC000019080177    0.5100
9      F9      1.1434    6.8416   -2.4550 F        1 ZINC000019080177   -0.1700
10     F10    -0.2760    7.8031   -0.9450 F        1 ZINC000019080177   -0.1800
11     F11     1.2314    6.2311   -0.2552 F        1 ZINC000019080177   -0.1700
12     C12    -1.8801    5.8657   -2.0413 C.ar     1 ZINC000019080177   -0.0400
13     C13    -2.8139    4.8752   -2.2822 C.ar     1 ZINC000019080177   -0.1500
14     C14    -2.4924    3.5473   -2.0468 C.ar     1 ZINC000019080177    0.2000
15     N15    -3.4385    2.5405   -2.2910 N.pl3    1 ZINC000019080177   -0.3200
16     C16    -4.6932    2.7244   -2.7593 C.2      1 ZINC000019080177    0.0500
17     C17    -5.2797    1.5083   -2.8549 C.2      1 ZINC000019080177   -0.2500
18     C18    -4.3537    0.5491   -2.4314 C.2      1 ZINC000019080177    0.0600
19     N19    -3.2481    1.1660   -2.0985 N.2      1 ZINC000019080177   -0.2900
20     C20    -2.1249    1.5034    1.1234 C.ar     1 ZINC000019080177   -0.6300
21     C21    -2.7356    0.3903    1.5970 C.ar     1 ZINC000019080177    0.0500
22     C22    -3.9361    0.4603    2.3038 C.ar     1 ZINC000019080177   -0.1300
23     C23    -4.5472    1.6447    2.5491 C.ar     1 ZINC000019080177    0.0000
24     C24    -3.9648    2.8502    2.0832 C.ar     1 ZINC000019080177    0.0600
25     N25    -4.3637    4.1070    2.1947 N.2      1 ZINC000019080177   -0.5800
26     S26    -3.3369    5.0399    1.4913 S.3      1 ZINC000019080177    0.8200
27     N27    -2.3094    3.9872    0.9860 N.2      1 ZINC000019080177   -0.5900
28     C28    -2.7045    2.7774    1.3484 C.ar     1 ZINC000019080177    0.1500
29     H29    -0.8425    1.2520   -2.0497 H        1 ZINC000019080177    0.4300
30     H30     0.6817    3.9638   -0.9410 H        1 ZINC000019080177    0.1600
31     H31    -2.1308    6.8992   -2.2295 H        1 ZINC000019080177    0.1500
32     H32    -3.7925    5.1355   -2.6576 H        1 ZINC000019080177    0.1500
33     H33    -5.1465    3.6717   -3.0113 H        1 ZINC000019080177    0.1800
34     H34    -6.2850    1.3129   -3.1977 H        1 ZINC000019080177    0.1600
35     H35    -4.5207   -0.5171   -2.3899 H        1 ZINC000019080177    0.1900
36     H36    -2.2821   -0.5743    1.4226 H        1 ZINC000019080177    0.1600
37     H37    -4.3896   -0.4513    2.6640 H        1 ZINC000019080177    0.1500
38     H38    -5.4767    1.6700    3.0985 H        1 ZINC000019080177    0.1500
@<TRIPOS>BOND
1     1     2     2
2     2     3     2
3     2     4     am
4     2     20    1
5     4     5     1
6     4     29    1
7     5     14    ar
8     5     6     ar
9     6     7     ar
10    6     30    1
11    7     8     1
12    7     12    ar
13    8     9     1
14    8     10    1
15    8     11    1
16    12    13    ar
17    12    31    1
18    13    14    ar
19    13    32    1
20    14    15    1
21    15    19    1
22    15    16    1
23    16    17    2
24    16    33    1
25    17    18    1
26    17    34    1
27    18    19    2
28    18    35    1
29    20    28    ar
30    20    21    ar
31    21    22    ar
32    21    36    1
33    22    23    ar
34    22    37    1
35    23    24    ar
36    23    38    1
37    24    28    ar
38    24    25    2
39    25    26    1
40    26    27    1
41    27    28    2
@<TRIPOS>SUBSTRUCTURE
1   ZINC000019080177 1     RESIDUE    1   A     ZIN   1
@<TRIPOS>MOLECULE
ZINC000019292158
65    70    1     0     0
SMALL
USER_CHARGES
@<TRIPOS>ATOM
1      O1     -0.4640    0.1633    0.5131 O.2      1 ZINC000019292158   -0.5400
2      C2     -0.5500    1.3724    0.5535 C.2      1 ZINC000019292158    0.5500
3      C3      0.6949    2.2127    0.6762 C.3      1 ZINC000019292158   -0.2000
4      C4      1.4636    2.1478    1.9975 C.3      1 ZINC000019292158   -0.1500
5      C5      2.0370    1.4812    0.7454 C.3      1 ZINC000019292158   -0.1500
6      N6     -1.7586    1.9647    0.4830 N.am     1 ZINC000019292158   -0.6100
7      C7     -1.8784    3.4285    0.5246 C.3      1 ZINC000019292158    0.1100
8      C8     -2.6864    3.8918   -0.6917 C.3      1 ZINC000019292158   -0.1300
9      C9     -4.0258    3.1520   -0.7212 C.3      1 ZINC000019292158    0.0000
10     C10    -4.8376    3.6301   -1.8974 C.2      1 ZINC000019292158    0.1000
11     C11    -6.0475    4.2184   -1.8269 C.2      1 ZINC000019292158   -0.2900
12     C12    -6.4727    4.5170   -3.1447 C.2      1 ZINC000019292158    0.3200
13     N13    -7.5694    5.0860   -3.6179 N.2      1 ZINC000019292158   -0.5700
14     C14    -7.7548    5.2701   -4.9254 C.2      1 ZINC000019292158    0.2200
15     C15    -6.8024    4.8678   -5.8113 C.2      1 ZINC000019292158   -0.4500
16     C16    -6.9566    5.0580   -7.2953 C.3      1 ZINC000019292158    0.1100
17     N17    -8.3614    5.2920   -7.6432 N.4      1 ZINC000019292158   -0.3800
18     H18    -8.8994    4.4597   -7.4542 H        1 ZINC000019292158    0.4200
19     C19    -8.4651    5.6317   -9.0686 C.3      1 ZINC000019292158    0.0000
20     C20    -8.0545    4.4230   -9.9121 C.3      1 ZINC000019292158   -0.1200
21     H21    -7.0599    4.0900   -9.6153 H        1 ZINC000019292158    0.1000
22     C22    -8.0474    4.8078  -11.3931 C.3      1 ZINC000019292158   -0.0800
23     C23    -7.9080    3.5805  -12.2454 C.2      1 ZINC000019292158   -0.1600
24     C24    -8.1256    2.3762  -11.8237 C.2      1 ZINC000019292158   -0.1500
25     C25    -8.5378    2.0381  -10.4209 C.3      1 ZINC000019292158   -0.0900
26     C26    -9.0620    3.2848   -9.7068 C.3      1 ZINC000019292158   -0.1300
27     C27    -8.8749    6.4056   -6.8306 C.3      1 ZINC000019292158    0.0100
28     C28    -9.0323    5.9237   -5.3878 C.3      1 ZINC000019292158   -0.0900
29     C29    -5.6307    4.2542   -5.3230 C.2      1 ZINC000019292158    0.5700
30     O30    -4.7620    3.8771   -6.0921 O.2      1 ZINC000019292158   -0.5600
31     N31    -5.4855    4.0913   -3.9940 N.am     1 ZINC000019292158   -0.3600
32     N32    -4.4632    3.5428   -3.2106 N.pl3    1 ZINC000019292158   -0.3300
33     C33    -3.7769    1.6476   -0.8512 C.3      1 ZINC000019292158   -0.1200
34     C34    -2.9809    1.1591    0.3571 C.3      1 ZINC000019292158    0.1100
35     H35     0.6695    3.1695    0.1548 H        1 ZINC000019292158    0.1300
36     H36     1.9440    3.0622    2.3457 H        1 ZINC000019292158    0.1000
37     H37     1.0689    1.4973    2.7780 H        1 ZINC000019292158    0.1000
38     H38     2.0194    0.3922    0.7021 H        1 ZINC000019292158    0.1100
39     H39     2.8946    1.9570    0.2698 H        1 ZINC000019292158    0.1000
40     H40    -2.3908    3.7273    1.4390 H        1 ZINC000019292158    0.0700
41     H41    -0.8855    3.8773    0.4963 H        1 ZINC000019292158    0.0900
42     H42    -2.8648    4.9648   -0.6226 H        1 ZINC000019292158    0.0800
43     H43    -2.1298    3.6729   -1.6030 H        1 ZINC000019292158    0.0800
44     H44    -4.5711    3.3513    0.2013 H        1 ZINC000019292158    0.0900
45     H45    -6.5987    4.4259   -0.9216 H        1 ZINC000019292158    0.1400
46     H46    -6.3607    5.9141   -7.6116 H        1 ZINC000019292158    0.1100
47     H47    -6.6029    4.1649   -7.8105 H        1 ZINC000019292158    0.1200
48     H48    -9.4937    5.9057   -9.3029 H        1 ZINC000019292158    0.1300
49     H49    -7.8059    6.4708   -9.2911 H        1 ZINC000019292158    0.1300
50     H50    -8.9805    5.3146  -11.6392 H        1 ZINC000019292158    0.0800
51     H51    -7.2115    5.4797  -11.5878 H        1 ZINC000019292158    0.0800
52     H52    -7.6079    3.7102  -13.2747 H        1 ZINC000019292158    0.1100
53     H53    -8.0032    1.5642  -12.5251 H        1 ZINC000019292158    0.1100
54     H54    -9.3202    1.2797  -10.4470 H        1 ZINC000019292158    0.0800
55     H55    -7.6781    1.6487   -9.8756 H        1 ZINC000019292158    0.0800
56     H56    -9.1758    3.0769   -8.6428 H        1 ZINC000019292158    0.0600
57     H57   -10.0234    3.5734  -10.1317 H        1 ZINC000019292158    0.0800
58     H58    -8.1717    7.2377   -6.8639 H        1 ZINC000019292158    0.1300
59     H59    -9.8426    6.7250   -7.2173 H        1 ZINC000019292158    0.1300
60     H60    -9.8483    5.2032   -5.3334 H        1 ZINC000019292158    0.1000
61     H61    -9.2576    6.7742   -4.7443 H        1 ZINC000019292158    0.1200
62     H62    -4.7316    1.1234   -0.8957 H        1 ZINC000019292158    0.0800
63     H63    -3.2101    1.4499   -1.7610 H        1 ZINC000019292158    0.0700
64     H64    -2.7165    0.1105    0.2209 H        1 ZINC000019292158    0.0900
65     H65    -3.5808    1.2725    1.2601 H        1 ZINC000019292158    0.0700
@<TRIPOS>BOND
1     1     2     2
2     2     3     1
3     2     6     am
4     3     5     1
5     3     4     1
6     3     35    1
7     4     5     1
8     4     36    1
9     4     37    1
10    5     38    1
11    5     39    1
12    6     34    1
13    6     7     1
14    7     8     1
15    7     40    1
16    7     41    1
17    8     9     1
18    8     42    1
19    8     43    1
20    9     10    1
21    9     33    1
22    9     44    1
23    10    32    1
24    10    11    2
25    11    12    1
26    11    45    1
27    12    31    1
28    12    13    2
29    13    14    1
30    14    28    1
31    14    15    2
32    15    16    1
33    15    29    1
34    16    17    1
35    16    46    1
36    16    47    1
37    17    18    1
38    17    19    1
39    17    27    1
40    19    20    1
41    19    48    1
42    19    49    1
43    20    21    1
44    20    26    1
45    20    22    1
46    22    23    1
47    22    50    1
48    22    51    1
49    23    24    2
50    23    52    1
51    24    25    1
52    24    53    1
53    25    26    1
54    25    54    1
55    25    55    1
56    26    56    1
57    26    57    1
58    27    28    1
59    27    58    1
60    27    59    1
61    28    60    1
62    28    61    1
63    29    30    2
64    29    31    am
65    31    32    1
66    33    34    1
67    33    62    1
68    33    63    1
69    34    64    1
70    34    65    1
@<TRIPOS>SUBSTRUCTURE
1   ZINC000019292158 1     RESIDUE    1   A     ZIN   1

@<TRIPOS>MOLECULE
ZINC000019292158
65    70    1     0     0
SMALL
USER_CHARGES
@<TRIPOS>ATOM
1      O1      0.0021   -0.0041    0.0020 O.2      1 ZINC000019292158   -0.5400
2      C2     -0.0144    1.2086    0.0087 C.2      1 ZINC000019292158    0.5500
3      C3      1.2803    1.9798    0.0005 C.3      1 ZINC000019292158   -0.2000
4      C4      2.1525    1.9095    1.2556 C.3      1 ZINC000019292158   -0.1500
5      C5      2.5817    1.1754   -0.0163 C.3      1 ZINC000019292158   -0.1500
6      N6     -1.1906    1.8666    0.0178 N.am     1 ZINC000019292158   -0.6100
7      C7     -1.2267    3.3354    0.0199 C.3      1 ZINC000019292158    0.1100
8      C8     -2.1074    3.8085   -1.1408 C.3      1 ZINC000019292158   -0.1300
9      C9     -3.4829    3.1458   -1.0354 C.3      1 ZINC000019292158    0.0000
10     C10    -4.3632    3.6352   -2.1564 C.2      1 ZINC000019292158    0.1000
11     C11    -5.5292    4.2932   -2.0065 C.2      1 ZINC000019292158   -0.2900
12     C12    -6.0469    4.5767   -3.2943 C.2      1 ZINC000019292158    0.3200
13     N13    -7.1460    5.1947   -3.6946 N.2      1 ZINC000019292158   -0.5700
14     C14    -7.4336    5.3449   -4.9879 C.2      1 ZINC000019292158    0.2200
15     C15    -6.5858    4.8570   -5.9349 C.2      1 ZINC000019292158   -0.4500
16     C16    -6.8650    4.9919   -7.4067 C.3      1 ZINC000019292158    0.1100
17     N17    -7.8584    6.0422   -7.6502 N.4      1 ZINC000019292158   -0.3800
18     H18    -7.4698    6.9392   -7.4001 H        1 ZINC000019292158    0.4200
19     C19    -8.2312    6.0466   -9.0711 C.3      1 ZINC000019292158    0.0000
20     C20    -7.0165    6.4361   -9.9159 C.3      1 ZINC000019292158   -0.1200
21     H21    -6.1837    5.7705   -9.6888 H        1 ZINC000019292158    0.1000
22     C22    -6.6184    7.8814   -9.6088 C.3      1 ZINC000019292158   -0.1000
23     C23    -5.6078    8.3627  -10.6083 C.2      1 ZINC000019292158   -0.1600
24     C24    -5.3837    7.7891  -11.7468 C.2      1 ZINC000019292158   -0.1500
25     C25    -6.0961    6.5567  -12.2221 C.3      1 ZINC000019292158   -0.1000
26     C26    -7.3691    6.3313  -11.4051 C.3      1 ZINC000019292158   -0.1100
27     C27    -9.0479    5.7739   -6.8274 C.3      1 ZINC000019292158    0.0000
28     C28    -8.7043    6.0630   -5.3655 C.3      1 ZINC000019292158   -0.0900
29     C29    -5.4072    4.2014   -5.5242 C.2      1 ZINC000019292158    0.5700
30     O30    -4.6243    3.7596   -6.3491 O.2      1 ZINC000019292158   -0.5600
31     N31    -5.1592    4.0706   -4.2070 N.am     1 ZINC000019292158   -0.3600
32     N32    -4.1055    3.4886   -3.4922 N.pl3    1 ZINC000019292158   -0.3300
33     C33    -3.3279    1.6265   -1.1348 C.3      1 ZINC000019292158   -0.1200
34     C34    -2.4611    1.1287    0.0199 C.3      1 ZINC000019292158    0.1100
35     H35     1.2634    2.9210   -0.5490 H        1 ZINC000019292158    0.1300
36     H36     2.7094    2.8047    1.5322 H        1 ZINC000019292158    0.1000
37     H37     1.7898    1.3055    2.0873 H        1 ZINC000019292158    0.1000
38     H38     2.5014    0.0883   -0.0214 H        1 ZINC000019292158    0.1100
39     H39     3.4210    1.5876   -0.5764 H        1 ZINC000019292158    0.1000
40     H40    -1.6436    3.6893    0.9628 H        1 ZINC000019292158    0.0700
41     H41    -0.2168    3.7259   -0.1049 H        1 ZINC000019292158    0.0900
42     H42    -2.2208    4.8916   -1.0934 H        1 ZINC000019292158    0.0800
43     H43    -1.6419    3.5321   -2.0869 H        1 ZINC000019292158    0.0800
44     H44    -3.9372    3.4025   -0.0784 H        1 ZINC000019292158    0.0900
45     H45    -5.9900    4.5585   -1.0665 H        1 ZINC000019292158    0.1400
46     H46    -5.9406    5.2443   -7.9261 H        1 ZINC000019292158    0.1200
47     H47    -7.2436    4.0438   -7.7888 H        1 ZINC000019292158    0.1100
48     H48    -8.5714    5.0524   -9.3606 H        1 ZINC000019292158    0.1300
49     H49    -9.0331    6.7668   -9.2341 H        1 ZINC000019292158    0.1300
50     H50    -7.5026    8.5172   -9.6542 H        1 ZINC000019292158    0.0800
51     H51    -6.1897    7.9332   -8.6080 H        1 ZINC000019292158    0.0700
52     H52    -5.0318    9.2426  -10.3625 H        1 ZINC000019292158    0.1100
53     H53    -4.6378    8.2247  -12.3952 H        1 ZINC000019292158    0.1100
54     H54    -6.3567    6.6731  -13.2741 H        1 ZINC000019292158    0.0800
55     H55    -5.4403    5.6936  -12.1078 H        1 ZINC000019292158    0.0800
56     H56    -7.7736    5.3427  -11.6223 H        1 ZINC000019292158    0.0800
57     H57    -8.1053    7.0950  -11.6557 H        1 ZINC000019292158    0.0700
58     H58    -9.8663    6.4197   -7.1456 H        1 ZINC000019292158    0.1300
59     H59    -9.3394    4.7292   -6.9352 H        1 ZINC000019292158    0.1300
60     H60    -9.5182    5.7191   -4.7272 H        1 ZINC000019292158    0.1200
61     H61    -8.5680    7.1360   -5.2307 H        1 ZINC000019292158    0.1000
62     H62    -4.3100    1.1566   -1.0831 H        1 ZINC000019292158    0.0800
63     H63    -2.8510    1.3706   -2.0809 H        1 ZINC000019292158    0.0700
64     H64    -2.2665    0.0631   -0.1024 H        1 ZINC000019292158    0.0900
65     H65    -2.9762    1.3021    0.9647 H        1 ZINC000019292158    0.0700
@<TRIPOS>BOND
1     1     2     2
2     2     3     1
3     2     6     am
4     3     5     1
5     3     4     1
6     3     35    1
7     4     5     1
8     4     36    1
9     4     37    1
10    5     38    1
11    5     39    1
12    6     34    1
13    6     7     1
14    7     8     1
15    7     40    1
16    7     41    1
17    8     9     1
18    8     42    1
19    8     43    1
20    9     10    1
21    9     33    1
22    9     44    1
23    10    32    1
24    10    11    2
25    11    12    1
26    11    45    1
27    12    31    1
28    12    13    2
29    13    14    1
30    14    28    1
31    14    15    2
32    15    16    1
33    15    29    1
34    16    17    1
35    16    46    1
36    16    47    1
37    17    18    1
38    17    19    1
39    17    27    1
40    19    20    1
41    19    48    1
42    19    49    1
43    20    21    1
44    20    26    1
45    20    22    1
46    22    23    1
47    22    50    1
48    22    51    1
49    23    24    2
50    23    52    1
51    24    25    1
52    24    53    1
53    25    26    1
54    25    54    1
55    25    55    1
56    26    56    1
57    26    57    1
58    27    28    1
59    27    58    1
60    27    59    1
61    28    60    1
62    28    61    1
63    29    30    2
64    29    31    am
65    31    32    1
66    33    34    1
67    33    62    1
68    33    63    1
69    34    64    1
70    34    65    1
@<TRIPOS>SUBSTRUCTURE
1   ZINC000019292158 1     RESIDUE    1   A     ZIN   1

@<TRIPOS>MOLECULE
ZINC000019292158
66    71    1     0     0
SMALL
USER_CHARGES
@<TRIPOS>ATOM
1      O1      0.0021   -0.0041    0.0020 O.2      1 ZINC000019292158   -0.5300
2      C2     -0.0144    1.2086    0.0087 C.2      1 ZINC000019292158    0.5500
3      C3      1.2803    1.9798    0.0005 C.3      1 ZINC000019292158   -0.2000
4      C4      2.1525    1.9095    1.2556 C.3      1 ZINC000019292158   -0.1500
5      C5      2.5817    1.1754   -0.0163 C.3      1 ZINC000019292158   -0.1500
6      N6     -1.1906    1.8666    0.0178 N.am     1 ZINC000019292158   -0.6200
7      C7     -1.2267    3.3354    0.0199 C.3      1 ZINC000019292158    0.1100
8      C8     -2.1074    3.8085   -1.1408 C.3      1 ZINC000019292158   -0.1400
9      C9     -3.4829    3.1458   -1.0354 C.3      1 ZINC000019292158   -0.0400
10     C10    -4.3632    3.6352   -2.1564 C.2      1 ZINC000019292158    0.2200
11     C11    -5.5290    4.2936   -2.0065 C.2      1 ZINC000019292158   -0.2400
12     C12    -6.0467    4.5770   -3.2943 C.2      1 ZINC000019292158    0.4300
13     N13    -7.1457    5.1952   -3.6946 N.2      1 ZINC000019292158   -0.5300
14     C14    -7.4334    5.3451   -4.9879 C.2      1 ZINC000019292158    0.2400
15     C15    -6.5859    4.8568   -5.9349 C.2      1 ZINC000019292158   -0.3600
16     C16    -6.8653    4.9913   -7.4067 C.3      1 ZINC000019292158    0.0900
17     N17    -7.8583    6.0419   -7.6504 N.4      1 ZINC000019292158   -0.3900
18     H18    -7.4695    6.9389   -7.4005 H        1 ZINC000019292158    0.4200
19     C19    -8.2314    6.0461   -9.0712 C.3      1 ZINC000019292158    0.0000
20     C20    -7.0167    6.4350   -9.9163 C.3      1 ZINC000019292158   -0.1200
21     H21    -6.1841    5.7692   -9.6891 H        1 ZINC000019292158    0.1000
22     C22    -6.6181    7.8802   -9.6095 C.3      1 ZINC000019292158   -0.1000
23     C23    -5.6074    8.3610  -10.6093 C.2      1 ZINC000019292158   -0.1700
24     C24    -5.3837    7.7870  -11.7477 C.2      1 ZINC000019292158   -0.1400
25     C25    -6.0965    6.5548  -12.2226 C.3      1 ZINC000019292158   -0.1000
26     C26    -7.3695    6.3299  -11.4053 C.3      1 ZINC000019292158   -0.1100
27     C27    -9.0479    5.7742   -6.8273 C.3      1 ZINC000019292158    0.0000
28     C28    -8.7040    6.0635   -5.3655 C.3      1 ZINC000019292158   -0.1000
29     C29    -5.4074    4.2009   -5.5242 C.2      1 ZINC000019292158    0.5500
30     O30    -4.6248    3.7586   -6.3490 O.2      1 ZINC000019292158   -0.5300
31     N31    -5.1593    4.0703   -4.2069 N.am     1 ZINC000019292158   -0.3300
32     N32    -4.1058    3.4882   -3.4922 N.pl3    1 ZINC000019292158   -0.4600
33     C33    -3.3279    1.6265   -1.1348 C.3      1 ZINC000019292158   -0.1300
34     C34    -2.4611    1.1287    0.0199 C.3      1 ZINC000019292158    0.1100
35     H35     1.2634    2.9210   -0.5490 H        1 ZINC000019292158    0.1200
36     H36     2.7094    2.8047    1.5322 H        1 ZINC000019292158    0.1100
37     H37     1.7898    1.3055    2.0873 H        1 ZINC000019292158    0.1000
38     H38     2.5014    0.0883   -0.0214 H        1 ZINC000019292158    0.1100
39     H39     3.4210    1.5876   -0.5764 H        1 ZINC000019292158    0.1100
40     H40    -1.6436    3.6893    0.9628 H        1 ZINC000019292158    0.0800
41     H41    -0.2168    3.7259   -0.1049 H        1 ZINC000019292158    0.1000
42     H42    -2.2208    4.8916   -1.0934 H        1 ZINC000019292158    0.0900
43     H43    -1.6419    3.5321   -2.0869 H        1 ZINC000019292158    0.0700
44     H44    -3.9372    3.4025   -0.0784 H        1 ZINC000019292158    0.1300
45     H45    -5.9896    4.5593   -1.0665 H        1 ZINC000019292158    0.1900
46     H46    -5.9408    5.2434   -7.9262 H        1 ZINC000019292158    0.1400
47     H47    -7.2442    4.0433   -7.7885 H        1 ZINC000019292158    0.1300
48     H48    -8.5719    5.0519   -9.3604 H        1 ZINC000019292158    0.1300
49     H49    -9.0330    6.7665   -9.2342 H        1 ZINC000019292158    0.1400
50     H50    -7.5021    8.5163   -9.6550 H        1 ZINC000019292158    0.0900
51     H51    -6.1893    7.9321   -8.6088 H        1 ZINC000019292158    0.0700
52     H52    -5.0312    9.2408  -10.3638 H        1 ZINC000019292158    0.1100
53     H53    -4.6378    8.2222  -12.3963 H        1 ZINC000019292158    0.1100
54     H54    -6.3572    6.6710  -13.2745 H        1 ZINC000019292158    0.0900
55     H55    -5.4410    5.6914  -12.1081 H        1 ZINC000019292158    0.0800
56     H56    -7.7744    5.3414  -11.6222 H        1 ZINC000019292158    0.0800
57     H57    -8.1056    7.0938  -11.6561 H        1 ZINC000019292158    0.0800
58     H58    -9.8661    6.4202   -7.1455 H        1 ZINC000019292158    0.1500
59     H59    -9.3398    4.7295   -6.9348 H        1 ZINC000019292158    0.1400
60     H60    -9.5179    5.7201   -4.7270 H        1 ZINC000019292158    0.1400
61     H61    -8.5673    7.1365   -5.2310 H        1 ZINC000019292158    0.1200
62     H62    -3.3283    3.0545   -3.8773 H        1 ZINC000019292158    0.4600
63     H63    -4.3100    1.1566   -1.0831 H        1 ZINC000019292158    0.0900
64     H64    -2.8510    1.3706   -2.0809 H        1 ZINC000019292158    0.0700
65     H65    -2.2665    0.0631   -0.1024 H        1 ZINC000019292158    0.1000
66     H66    -2.9762    1.3021    0.9647 H        1 ZINC000019292158    0.0800
@<TRIPOS>BOND
1     1     2     2
2     2     3     1
3     2     6     am
4     3     5     1
5     3     4     1
6     3     35    1
7     4     5     1
8     4     36    1
9     4     37    1
10    5     38    1
11    5     39    1
12    6     34    1
13    6     7     1
14    7     8     1
15    7     40    1
16    7     41    1
17    8     9     1
18    8     42    1
19    8     43    1
20    9     10    1
21    9     33    1
22    9     44    1
23    10    32    1
24    10    11    2
25    11    12    1
26    11    45    1
27    12    31    1
28    12    13    2
29    13    14    1
30    14    28    1
31    14    15    2
32    15    16    1
33    15    29    1
34    16    17    1
35    16    46    1
36    16    47    1
37    17    18    1
38    17    19    1
39    17    27    1
40    19    20    1
41    19    48    1
42    19    49    1
43    20    21    1
44    20    26    1
45    20    22    1
46    22    23    1
47    22    50    1
48    22    51    1
49    23    24    2
50    23    52    1
51    24    25    1
52    24    53    1
53    25    26    1
54    25    54    1
55    25    55    1
56    26    56    1
57    26    57    1
58    27    28    1
59    27    58    1
60    27    59    1
61    28    60    1
62    28    61    1
63    29    30    2
64    29    31    am
65    31    32    1
66    32    62    1
67    33    34    1
68    33    63    1
69    33    64    1
70    34    65    1
71    34    66    1
@<TRIPOS>SUBSTRUCTURE
1   ZINC000019292158 1     RESIDUE    1   A     ZIN   1

@<TRIPOS>MOLECULE
ZINC000019292158
66    71    1     0     0
SMALL
USER_CHARGES
@<TRIPOS>ATOM
1      O1     -0.4639    0.1636    0.5133 O.2      1 ZINC000019292158   -0.5300
2      C2     -0.5499    1.3727    0.5536 C.2      1 ZINC000019292158    0.5500
3      C3      0.6950    2.2130    0.6763 C.3      1 ZINC000019292158   -0.2000
4      C4      1.4637    2.1482    1.9976 C.3      1 ZINC000019292158   -0.1500
5      C5      2.0370    1.4816    0.7455 C.3      1 ZINC000019292158   -0.1500
6      N6     -1.7585    1.9650    0.4831 N.am     1 ZINC000019292158   -0.6200
7      C7     -1.8784    3.4288    0.5247 C.3      1 ZINC000019292158    0.1100
8      C8     -2.6863    3.8920   -0.6916 C.3      1 ZINC000019292158   -0.1400
9      C9     -4.0258    3.1523   -0.7211 C.3      1 ZINC000019292158   -0.0400
10     C10    -4.8375    3.6304   -1.8974 C.2      1 ZINC000019292158    0.2200
11     C11    -6.0473    4.2190   -1.8268 C.2      1 ZINC000019292158   -0.2400
12     C12    -6.4726    4.5175   -3.1447 C.2      1 ZINC000019292158    0.4300
13     N13    -7.5691    5.0866   -3.6178 N.2      1 ZINC000019292158   -0.5300
14     C14    -7.7546    5.2704   -4.9253 C.2      1 ZINC000019292158    0.2400
15     C15    -6.8025    4.8677   -5.8112 C.2      1 ZINC000019292158   -0.3600
16     C16    -6.9568    5.0575   -7.2953 C.3      1 ZINC000019292158    0.0900
17     N17    -8.3616    5.2919   -7.6430 N.4      1 ZINC000019292158   -0.3900
18     H18    -8.8999    4.4598   -7.4538 H        1 ZINC000019292158    0.4200
19     C19    -8.4654    5.6313   -9.0685 C.3      1 ZINC000019292158    0.0000
20     C20    -8.0553    4.4222   -9.9118 C.3      1 ZINC000019292158   -0.1200
21     H21    -7.0608    4.0890   -9.6150 H        1 ZINC000019292158    0.1000
22     C22    -8.0483    4.8067  -11.3929 C.3      1 ZINC000019292158   -0.0800
23     C23    -7.9095    3.5791  -12.2449 C.2      1 ZINC000019292158   -0.1600
24     C24    -8.1273    2.3750  -11.8228 C.2      1 ZINC000019292158   -0.1500
25     C25    -8.5394    2.0374  -10.4199 C.3      1 ZINC000019292158   -0.0900
26     C26    -9.0632    3.2844   -9.7060 C.3      1 ZINC000019292158   -0.1300
27     C27    -8.8747    6.4059   -6.8306 C.3      1 ZINC000019292158    0.0000
28     C28    -9.0320    5.9244   -5.3877 C.3      1 ZINC000019292158   -0.1000
29     C29    -5.6310    4.2538   -5.3229 C.2      1 ZINC000019292158    0.5500
30     O30    -4.7625    3.8762   -6.0921 O.2      1 ZINC000019292158   -0.5300
31     N31    -5.4856    4.0912   -3.9940 N.am     1 ZINC000019292158   -0.3300
32     N32    -4.4633    3.5426   -3.2106 N.pl3    1 ZINC000019292158   -0.4600
33     C33    -3.7768    1.6479   -0.8511 C.3      1 ZINC000019292158   -0.1300
34     C34    -2.9808    1.1594    0.3572 C.3      1 ZINC000019292158    0.1100
35     H35     0.6696    3.1699    0.1549 H        1 ZINC000019292158    0.1200
36     H36     1.9441    3.0626    2.3458 H        1 ZINC000019292158    0.1100
37     H37     1.0689    1.4977    2.7781 H        1 ZINC000019292158    0.1000
38     H38     2.0195    0.3926    0.7023 H        1 ZINC000019292158    0.1100
39     H39     2.8947    1.9574    0.2699 H        1 ZINC000019292158    0.1100
40     H40    -2.3908    3.7276    1.4391 H        1 ZINC000019292158    0.0800
41     H41    -0.8855    3.8776    0.4963 H        1 ZINC000019292158    0.1000
42     H42    -2.8648    4.9651   -0.6226 H        1 ZINC000019292158    0.0900
43     H43    -2.1297    3.6732   -1.6029 H        1 ZINC000019292158    0.0700
44     H44    -4.5710    3.3516    0.2014 H        1 ZINC000019292158    0.1300
45     H45    -6.5983    4.4270   -0.9215 H        1 ZINC000019292158    0.1900
46     H46    -6.3607    5.9134   -7.6119 H        1 ZINC000019292158    0.1300
47     H47    -6.6035    4.1642   -7.8104 H        1 ZINC000019292158    0.1400
48     H48    -9.4940    5.9055   -9.3028 H        1 ZINC000019292158    0.1400
49     H49    -7.8060    6.4701   -9.2913 H        1 ZINC000019292158    0.1400
50     H50    -8.9813    5.3137  -11.6390 H        1 ZINC000019292158    0.0900
51     H51    -7.2122    5.4782  -11.5879 H        1 ZINC000019292158    0.0800
52     H52    -7.6094    3.7084  -13.2743 H        1 ZINC000019292158    0.1100
53     H53    -8.0053    1.5627  -12.5241 H        1 ZINC000019292158    0.1100
54     H54    -9.3221    1.2792  -10.4458 H        1 ZINC000019292158    0.0800
55     H55    -7.6798    1.6478   -9.8747 H        1 ZINC000019292158    0.0800
56     H56    -9.1769    3.0768   -8.6420 H        1 ZINC000019292158    0.0600
57     H57   -10.0245    3.5732  -10.1309 H        1 ZINC000019292158    0.0800
58     H58    -8.1712    7.2378   -6.8643 H        1 ZINC000019292158    0.1400
59     H59    -9.8423    6.7255   -7.2173 H        1 ZINC000019292158    0.1500
60     H60    -9.8483    5.2042   -5.3330 H        1 ZINC000019292158    0.1200
61     H61    -9.2569    6.7751   -4.7444 H        1 ZINC000019292158    0.1400
62     H62    -3.6340    3.1637   -3.5416 H        1 ZINC000019292158    0.4600
63     H63    -4.7315    1.1237   -0.8956 H        1 ZINC000019292158    0.0900
64     H64    -3.2100    1.4502   -1.7609 H        1 ZINC000019292158    0.0700
65     H65    -2.7164    0.1108    0.2210 H        1 ZINC000019292158    0.1000
66     H66    -3.5808    1.2728    1.2602 H        1 ZINC000019292158    0.0800
@<TRIPOS>BOND
1     1     2     2
2     2     3     1
3     2     6     am
4     3     5     1
5     3     4     1
6     3     35    1
7     4     5     1
8     4     36    1
9     4     37    1
10    5     38    1
11    5     39    1
12    6     34    1
13    6     7     1
14    7     8     1
15    7     40    1
16    7     41    1
17    8     9     1
18    8     42    1
19    8     43    1
20    9     10    1
21    9     33    1
22    9     44    1
23    10    32    1
24    10    11    2
25    11    12    1
26    11    45    1
27    12    31    1
28    12    13    2
29    13    14    1
30    14    28    1
31    14    15    2
32    15    16    1
33    15    29    1
34    16    17    1
35    16    46    1
36    16    47    1
37    17    18    1
38    17    19    1
39    17    27    1
40    19    20    1
41    19    48    1
42    19    49    1
43    20    21    1
44    20    26    1
45    20    22    1
46    22    23    1
47    22    50    1
48    22    51    1
49    23    24    2
50    23    52    1
51    24    25    1
52    24    53    1
53    25    26    1
54    25    54    1
55    25    55    1
56    26    56    1
57    26    57    1
58    27    28    1
59    27    58    1
60    27    59    1
61    28    60    1
62    28    61    1
63    29    30    2
64    29    31    am
65    31    32    1
66    32    62    1
67    33    34    1
68    33    63    1
69    33    64    1
70    34    65    1
71    34    66    1
@<TRIPOS>SUBSTRUCTURE
1   ZINC000019292158 1     RESIDUE    1   A     ZIN   1
@<TRIPOS>MOLECULE
ZINC000019343225
56    60    1     0     0
SMALL
USER_CHARGES
@<TRIPOS>ATOM
1      O1     -2.5041   -0.2131   -2.3215 O.2      1 ZINC000019343225   -0.5000
2      C2     -2.8932    0.9347   -2.3666 C.2      1 ZINC000019343225    0.5100
3      C3     -3.3734    1.5169   -3.6710 C.3      1 ZINC000019343225   -0.0600
4      C4     -3.2686    0.4750   -4.7549 C.2      1 ZINC000019343225   -0.1700
5      C5     -4.2300   -0.3876   -5.0878 C.2      1 ZINC000019343225   -0.1200
6      C6     -3.9054   -1.2538   -6.1176 C.2      1 ZINC000019343225   -0.1300
7      C7     -2.6805   -1.0946   -6.6209 C.2      1 ZINC000019343225   -0.2100
8      S8     -1.8627    0.2156   -5.7794 S.3      1 ZINC000019343225    0.1100
9      N9     -2.9012    1.6880   -1.2490 N.am     1 ZINC000019343225   -0.6100
10     C10    -3.2555    3.1126   -1.3089 C.3      1 ZINC000019343225    0.1100
11     C11    -4.3794    3.3839   -0.3040 C.3      1 ZINC000019343225   -0.1400
12     C12    -3.9461    2.9018    1.0824 C.3      1 ZINC000019343225   -0.1200
13     C13    -3.6876    1.3940    1.0422 C.3      1 ZINC000019343225   -0.1400
14     C14    -2.5618    1.0986    0.0534 C.3      1 ZINC000019343225    0.1900
15     H15    -1.6325    1.5383    0.4158 H        1 ZINC000019343225    0.1200
16     C16    -2.3933   -0.3920   -0.0898 C.2      1 ZINC000019343225    0.4400
17     N17    -1.2108   -0.9177    0.0645 N.2      1 ZINC000019343225   -0.5400
18     C18    -0.9981   -2.2392   -0.0483 C.2      1 ZINC000019343225    0.2100
19     C19    -2.0434   -3.0572   -0.3181 C.2      1 ZINC000019343225   -0.2800
20     C20    -1.9029   -4.5517   -0.4354 C.3      1 ZINC000019343225    0.1800
21     N21    -0.4811   -4.9109   -0.4916 N.am     1 ZINC000019343225   -0.6100
22     C22    -0.0220   -5.8242   -1.3700 C.2      1 ZINC000019343225    0.5500
23     O23     1.1583   -6.1021   -1.3947 O.2      1 ZINC000019343225   -0.5400
24     C24    -0.9753   -6.5002   -2.3215 C.3      1 ZINC000019343225   -0.2000
25     C25    -0.8492   -6.1606   -3.8080 C.3      1 ZINC000019343225   -0.1500
26     C26    -0.3928   -7.5275   -3.2942 C.3      1 ZINC000019343225   -0.1500
27     C27     0.4232   -4.2316    0.4514 C.3      1 ZINC000019343225    0.1100
28     C28     0.4117   -2.7396    0.1208 C.3      1 ZINC000019343225   -0.0900
29     C29    -3.3261   -2.4883   -0.4953 C.2      1 ZINC000019343225    0.5500
30     O30    -4.2872   -3.1938   -0.7531 O.2      1 ZINC000019343225   -0.5400
31     N31    -3.4695   -1.1534   -0.3692 N.am     1 ZINC000019343225   -0.6100
32     H32    -4.4121    1.8310   -3.5682 H        1 ZINC000019343225    0.1200
33     H33    -2.7579    2.3773   -3.9334 H        1 ZINC000019343225    0.1100
34     H34    -5.1889   -0.4088   -4.5913 H        1 ZINC000019343225    0.1400
35     H35    -4.5919   -2.0021   -6.4854 H        1 ZINC000019343225    0.1400
36     H36    -2.2569   -1.6786   -7.4246 H        1 ZINC000019343225    0.1600
37     H37    -2.3845    3.7167   -1.0550 H        1 ZINC000019343225    0.0800
38     H38    -3.5957    3.3626   -2.3139 H        1 ZINC000019343225    0.0900
39     H39    -4.5859    4.4537   -0.2691 H        1 ZINC000019343225    0.0900
40     H40    -5.2785    2.8493   -0.6105 H        1 ZINC000019343225    0.0700
41     H41    -3.0332    3.4190    1.3777 H        1 ZINC000019343225    0.0700
42     H42    -4.7343    3.1161    1.8041 H        1 ZINC000019343225    0.0800
43     H43    -3.4017    1.0473    2.0353 H        1 ZINC000019343225    0.0900
44     H44    -4.5932    0.8780    0.7230 H        1 ZINC000019343225    0.0700
45     H45    -2.3635   -5.0285    0.4299 H        1 ZINC000019343225    0.0800
46     H46    -2.3994   -4.8926   -1.3439 H        1 ZINC000019343225    0.1000
47     H47    -1.9755   -6.6877   -1.9308 H        1 ZINC000019343225    0.1300
48     H48    -1.7666   -6.1244   -4.3956 H        1 ZINC000019343225    0.1000
49     H49    -0.0767   -5.4482   -4.0977 H        1 ZINC000019343225    0.1000
50     H50     0.6800   -7.7145   -3.2459 H        1 ZINC000019343225    0.1100
51     H51    -1.0098   -8.3907   -3.5438 H        1 ZINC000019343225    0.1000
52     H52     0.0747   -4.3857    1.4727 H        1 ZINC000019343225    0.0800
53     H53     1.4336   -4.6257    0.3424 H        1 ZINC000019343225    0.1100
54     H54     0.9646   -2.5730   -0.8036 H        1 ZINC000019343225    0.0900
55     H55     0.8928   -2.1895    0.9295 H        1 ZINC000019343225    0.1000
56     H56    -4.3406   -0.7429   -0.4859 H        1 ZINC000019343225    0.4100
@<TRIPOS>BOND
1     1     2     2
2     2     3     1
3     2     9     am
4     3     4     1
5     3     32    1
6     3     33    1
7     4     8     1
8     4     5     2
9     5     6     1
10    5     34    1
11    6     7     2
12    6     35    1
13    7     8     1
14    7     36    1
15    9     14    1
16    9     10    1
17    10    11    1
18    10    37    1
19    10    38    1
20    11    12    1
21    11    39    1
22    11    40    1
23    12    13    1
24    12    41    1
25    12    42    1
26    13    14    1
27    13    43    1
28    13    44    1
29    14    15    1
30    14    16    1
31    16    31    1
32    16    17    2
33    17    18    1
34    18    28    1
35    18    19    2
36    19    20    1
37    19    29    1
38    20    21    1
39    20    45    1
40    20    46    1
41    21    22    am
42    21    27    1
43    22    23    2
44    22    24    1
45    24    26    1
46    24    25    1
47    24    47    1
48    25    26    1
49    25    48    1
50    25    49    1
51    26    50    1
52    26    51    1
53    27    28    1
54    27    52    1
55    27    53    1
56    28    54    1
57    28    55    1
58    29    30    2
59    29    31    am
60    31    56    1
@<TRIPOS>SUBSTRUCTURE
1   ZINC000019343225 1     RESIDUE    1   A     ZIN   1

@<TRIPOS>MOLECULE
ZINC000019343225
55    59    1     0     0
SMALL
USER_CHARGES
@<TRIPOS>ATOM
1      O1     -0.9644   -0.4616    1.5175 O.2      1 ZINC000019343225   -0.4700
2      C2     -0.8817    0.7283    1.7373 C.2      1 ZINC000019343225    0.5100
3      C3      0.0640    1.2351    2.7954 C.3      1 ZINC000019343225   -0.0600
4      C4      0.7822    0.0704    3.4269 C.2      1 ZINC000019343225   -0.1500
5      C5      1.9416   -0.4376    3.0062 C.2      1 ZINC000019343225   -0.1200
6      C6      2.4112   -1.5095    3.7456 C.2      1 ZINC000019343225   -0.1300
7      C7      1.6331   -1.8720    4.7666 C.2      1 ZINC000019343225   -0.2200
8      S8      0.2237   -0.8221    4.8357 S.3      1 ZINC000019343225    0.0900
9      N9     -1.6315    1.5977    1.0313 N.am     1 ZINC000019343225   -0.6100
10     C10    -1.6320    3.0286    1.3649 C.3      1 ZINC000019343225    0.1100
11     C11    -1.2976    3.8293    0.1024 C.3      1 ZINC000019343225   -0.1400
12     C12    -2.2708    3.4438   -1.0141 C.3      1 ZINC000019343225   -0.1200
13     C13    -2.1202    1.9545   -1.3326 C.3      1 ZINC000019343225   -0.1200
14     C14    -2.4593    1.1335   -0.0903 C.3      1 ZINC000019343225    0.2300
15     H15    -3.5117    1.2671    0.1600 H        1 ZINC000019343225    0.0800
16     C16    -2.1848   -0.3240   -0.3576 C.2      1 ZINC000019343225    0.3800
17     N17    -3.1154   -1.2032   -0.1139 N.2      1 ZINC000019343225   -0.6300
18     C18    -2.9314   -2.5155   -0.3340 C.2      1 ZINC000019343225    0.1900
19     C19    -1.7485   -2.9428   -0.8367 C.2      1 ZINC000019343225   -0.3600
20     C20    -1.4640   -4.3900   -1.1395 C.3      1 ZINC000019343225    0.2000
21     N21    -2.5169   -5.2319   -0.5597 N.am     1 ZINC000019343225   -0.6000
22     C22    -2.2223   -6.3706    0.0984 C.2      1 ZINC000019343225    0.5500
23     O23    -3.1126   -7.0474    0.5677 O.2      1 ZINC000019343225   -0.5600
24     C24    -0.7868   -6.8029    0.2511 C.3      1 ZINC000019343225   -0.1900
25     C25    -0.1816   -6.7598    1.6557 C.3      1 ZINC000019343225   -0.1500
26     C26    -0.5178   -8.1048    1.0085 C.3      1 ZINC000019343225   -0.1500
27     C27    -3.9086   -4.7805   -0.7264 C.3      1 ZINC000019343225    0.1200
28     C28    -4.0617   -3.4493    0.0082 C.3      1 ZINC000019343225   -0.0800
29     C29    -0.7335   -1.9918   -1.0932 C.2      1 ZINC000019343225    0.5100
30     O30     0.3487   -2.3432   -1.5328 O.2      1 ZINC000019343225   -0.6300
31     N31    -0.9843   -0.6896   -0.8487 N.pl3    1 ZINC000019343225   -0.6400
32     H32     0.7917    1.9073    2.3406 H        1 ZINC000019343225    0.1100
33     H33    -0.4990    1.7720    3.5589 H        1 ZINC000019343225    0.0900
34     H34     2.4735   -0.0428    2.1532 H        1 ZINC000019343225    0.1400
35     H35     3.3372   -2.0144    3.5131 H        1 ZINC000019343225    0.1400
36     H36     1.8390   -2.6836    5.4488 H        1 ZINC000019343225    0.1600
37     H37    -2.6171    3.3181    1.7309 H        1 ZINC000019343225    0.0700
38     H38    -0.8827    3.2253    2.1316 H        1 ZINC000019343225    0.0800
39     H39    -1.3888    4.8949    0.3126 H        1 ZINC000019343225    0.0700
40     H40    -0.2777    3.6057   -0.2107 H        1 ZINC000019343225    0.0700
41     H41    -3.2922    3.6445   -0.6908 H        1 ZINC000019343225    0.0600
42     H42    -2.0505    4.0300   -1.9062 H        1 ZINC000019343225    0.0600
43     H43    -2.7969    1.6858   -2.1438 H        1 ZINC000019343225    0.0700
44     H44    -1.0926    1.7486   -1.6322 H        1 ZINC000019343225    0.0800
45     H45    -1.4362   -4.5361   -2.2193 H        1 ZINC000019343225    0.0500
46     H46    -0.5007   -4.6676   -0.7115 H        1 ZINC000019343225    0.0800
47     H47    -0.1321   -6.5637   -0.5869 H        1 ZINC000019343225    0.1200
48     H48     0.8715   -6.4920    1.7420 H        1 ZINC000019343225    0.1000
49     H49    -0.8218   -6.4188    2.4693 H        1 ZINC000019343225    0.1000
50     H50    -1.3791   -8.6486    1.3963 H        1 ZINC000019343225    0.1000
51     H51     0.3141   -8.7219    0.6690 H        1 ZINC000019343225    0.1000
52     H52    -4.1279   -4.6446   -1.7855 H        1 ZINC000019343225    0.0700
53     H53    -4.5890   -5.5175   -0.2998 H        1 ZINC000019343225    0.0900
54     H54    -4.0636   -3.6311    1.0830 H        1 ZINC000019343225    0.0700
55     H55    -5.0069   -2.9882   -0.2783 H        1 ZINC000019343225    0.0800
@<TRIPOS>BOND
1     1     2     2
2     2     3     1
3     2     9     am
4     3     4     1
5     3     32    1
6     3     33    1
7     4     8     1
8     4     5     2
9     5     6     1
10    5     34    1
11    6     7     2
12    6     35    1
13    7     8     1
14    7     36    1
15    9     14    1
16    9     10    1
17    10    11    1
18    10    37    1
19    10    38    1
20    11    12    1
21    11    39    1
22    11    40    1
23    12    13    1
24    12    41    1
25    12    42    1
26    13    14    1
27    13    43    1
28    13    44    1
29    14    15    1
30    14    16    1
31    16    31    1
32    16    17    2
33    17    18    1
34    18    28    1
35    18    19    2
36    19    20    1
37    19    29    1
38    20    21    1
39    20    45    1
40    20    46    1
41    21    22    am
42    21    27    1
43    22    23    2
44    22    24    1
45    24    26    1
46    24    25    1
47    24    47    1
48    25    26    1
49    25    48    1
50    25    49    1
51    26    50    1
52    26    51    1
53    27    28    1
54    27    52    1
55    27    53    1
56    28    54    1
57    28    55    1
58    29    30    2
59    29    31    1
@<TRIPOS>SUBSTRUCTURE
1   ZINC000019343225 1     RESIDUE    1   A     ZIN   1
@<TRIPOS>MOLECULE
ZINC000004481426
47    49    1     0     0
SMALL
USER_CHARGES
@<TRIPOS>ATOM
1      C1     -0.0184    1.5028    0.0103 C.3      1 ZINC000004481426   -0.1200
2      C2      0.0021   -0.0041    0.0020 C.ar     1 ZINC000004481426   -0.0600
3      C3      0.0057   -0.6887   -1.1989 C.ar     1 ZINC000004481426   -0.1500
4      C4      0.0245   -2.0709   -1.2065 C.ar     1 ZINC000004481426   -0.0200
5      C5      0.0400   -2.7685   -0.0132 C.ar     1 ZINC000004481426   -0.6300
6      S6      0.0633   -4.5303   -0.0229 S.o2     1 ZINC000004481426    2.6600
7      O7     -0.4690   -4.9455    1.2275 O.2      1 ZINC000004481426   -1.0200
8      O8     -0.4824   -4.9319   -1.2719 O.2      1 ZINC000004481426   -1.0200
9      N9      1.6514   -4.9995   -0.0340 N.pl3    1 ZINC000004481426   -1.1400
10     C10     1.9670   -6.3097   -0.0428 C.2      1 ZINC000004481426    0.7100
11     O11     1.0856   -7.1473   -0.0426 O.2      1 ZINC000004481426   -0.6800
12     N12     3.2595   -6.6916   -0.0518 N.am     1 ZINC000004481426   -0.6100
13     C13     3.5736   -8.1338   -0.0674 C.3      1 ZINC000004481426    0.1300
14     C14     4.7339   -8.4426   -1.0285 C.3      1 ZINC000004481426   -0.1300
15     C15     4.5903   -7.6091   -2.2827 C.3      1 ZINC000004481426    0.0700
16     N16     5.3420   -6.3658   -2.1194 N.3      1 ZINC000004481426   -0.5100
17     C17     5.9116   -5.9647   -3.3258 C.ar     1 ZINC000004481426    0.1700
18     C18     5.1143   -5.6868   -4.4365 C.ar     1 ZINC000004481426   -0.1200
19     Cl19    3.3874   -5.8353   -4.3397 Cl       1 ZINC000004481426   -0.0200
20     C20     5.7179   -5.2917   -5.6131 C.ar     1 ZINC000004481426    0.1200
21     N21     7.0302   -5.1763   -5.6950 N.ar     1 ZINC000004481426   -0.4600
22     C22     7.8186   -5.4300   -4.6673 C.ar     1 ZINC000004481426    0.1100
23     C23     7.2938   -5.8247   -3.4533 C.ar     1 ZINC000004481426   -0.0700
24     Cl24    8.3399   -6.1557   -2.1079 Cl       1 ZINC000004481426   -0.0300
25     C25     4.6561   -5.2941   -1.5015 C.3      1 ZINC000004481426    0.0500
26     C26     4.2877   -5.6708   -0.0517 C.3      1 ZINC000004481426    0.1500
27     C27     0.0378   -2.0839    1.1877 C.ar     1 ZINC000004481426   -0.0200
28     C28     0.0229   -0.7016    1.1953 C.ar     1 ZINC000004481426   -0.1500
29     H29     1.0042    1.8801    0.0026 H        1 ZINC000004481426    0.0700
30     H30    -0.5455    1.8639   -0.8728 H        1 ZINC000004481426    0.0700
31     H31    -0.5286    1.8543    0.9071 H        1 ZINC000004481426    0.0700
32     H32    -0.0064   -0.1436   -2.1312 H        1 ZINC000004481426    0.1200
33     H33     0.0266   -2.6057   -2.1448 H        1 ZINC000004481426    0.1300
34     H34     3.8497   -8.4498    0.9386 H        1 ZINC000004481426    0.0500
35     H35     2.6902   -8.6880   -0.3846 H        1 ZINC000004481426    0.0800
36     H36     5.6804   -8.2066   -0.5423 H        1 ZINC000004481426    0.0800
37     H37     4.7154   -9.5002   -1.2916 H        1 ZINC000004481426    0.0700
38     H38     4.9829   -8.1630   -3.1354 H        1 ZINC000004481426    0.0600
39     H39     3.5379   -7.3795   -2.4492 H        1 ZINC000004481426    0.0700
40     H40     5.1087   -5.0745   -6.4780 H        1 ZINC000004481426    0.1700
41     H41     8.8878   -5.3236   -4.7766 H        1 ZINC000004481426    0.1700
42     H42     5.2950   -4.4110   -1.4959 H        1 ZINC000004481426    0.0700
43     H43     3.7460   -5.0768   -2.0605 H        1 ZINC000004481426    0.0600
44     H44     3.9188   -4.7876    0.4699 H        1 ZINC000004481426    0.1000
45     H45     5.1718   -6.0507    0.4602 H        1 ZINC000004481426    0.0600
46     H46     0.0503   -2.6289    2.1200 H        1 ZINC000004481426    0.1400
47     H47     0.0211   -0.1667    2.1335 H        1 ZINC000004481426    0.1200
@<TRIPOS>BOND
1     1     2     1
2     1     29    1
3     1     30    1
4     1     31    1
5     2     28    ar
6     2     3     ar
7     3     4     ar
8     3     32    1
9     4     5     ar
10    4     33    1
11    5     6     1
12    5     27    ar
13    6     7     2
14    6     8     2
15    6     9     1
16    9     10    1
17    10    11    2
18    10    12    am
19    12    26    1
20    12    13    1
21    13    14    1
22    13    34    1
23    13    35    1
24    14    15    1
25    14    36    1
26    14    37    1
27    15    16    1
28    15    38    1
29    15    39    1
30    16    17    1
31    16    25    1
32    17    23    ar
33    17    18    ar
34    18    19    1
35    18    20    ar
36    20    21    ar
37    20    40    1
38    21    22    ar
39    22    23    ar
40    22    41    1
41    23    24    1
42    25    26    1
43    25    42    1
44    25    43    1
45    26    44    1
46    26    45    1
47    27    28    ar
48    27    46    1
49    28    47    1
@<TRIPOS>SUBSTRUCTURE
1   ZINC000004481426 1     RESIDUE    1   A     ZIN   1
@<TRIPOS>MOLECULE
ZINC000003841371
  54   58    0    0    0
SMALL
USER_CHARGES
NO_NAME
@<TRIPOS>ATOM
    1 O1        0.0021    -0.0041     0.0020 O.2    1 <0>      -0.5100
    2 C2       -0.0145     1.2165     0.0087 C.2    1 <0>       0.5200
    3 C3       -1.2473     1.8974     0.0300 C.2    1 <0>       0.0900
    4 N4       -2.4525     1.1852    -0.0065 N.am   1 <0>      -1.0300
    5 S5       -3.8954     1.9975     0.0190 S.o2   1 <0>       2.7100
    6 O6       -4.9136     1.0096    -0.0627 O.2    1 <0>      -0.9200
    7 O7       -3.8080     2.9374     1.0811 O.2    1 <0>      -0.9300
    8 C8       -3.9921     2.9358    -1.4692 C.2    1 <0>      -0.8200
    9 C9       -4.5212     2.5065    -2.6159 C.2    1 <0>       0.0300
   10 C10      -4.4860     3.4222    -3.6534 C.2    1 <0>      -0.1600
   11 C11      -3.9283     4.5951    -3.3492 C.2    1 <0>      -0.1600
   12 S12      -3.4126     4.5846    -1.6677 S.3    1 <0>       0.2100
   13 C13      -1.2507     3.2641     0.0873 C.2    1 <0>      -0.1100
   14 C14      -0.0263     3.9402     0.1502 C.2    1 <0>      -0.1300
   15 C15       1.1441     3.2523     0.1416 C.2    1 <0>       0.0600
   16 C16       2.4170     4.0404     0.3601 C.3    1 <0>      -0.0600
   17 H17       2.3144     5.0514    -0.0342 H      1 <0>       0.1500
   18 C18       3.5811     3.3115    -0.3213 C.3    1 <0>      -0.1300
   19 C19       3.6198     1.8856     0.2366 C.3    1 <0>      -0.1200
   20 H20       4.4981     1.3813    -0.1665 H      1 <0>       0.1400
   21 C21       2.3809     1.1326    -0.2196 C.3    1 <0>       0.0800
   22 N22       1.1543     1.9041     0.0013 N.am   1 <0>      -0.5000
   23 C23       3.7291     1.9050     1.7540 C.3    1 <0>      -0.0100
   24 N24       2.6340     2.6718     2.3547 N.4    1 <0>      -0.3900
   25 H25       1.7523     2.2504     2.1036 H      1 <0>       0.4200
   26 C26       2.7789     2.6671     3.8165 C.3    1 <0>       0.0400
   27 C27       1.5894     3.3493     4.4414 C.ar   1 <0>      -0.1800
   28 C28       1.6159     4.7126     4.6691 C.ar   1 <0>      -0.0700
   29 C29       0.5256     5.3394     5.2421 C.ar   1 <0>      -0.1500
   30 C30      -0.5938     4.6014     5.5878 C.ar   1 <0>       0.1400
   31 F31      -1.6604     5.2131     6.1476 F      1 <0>      -0.1200
   32 C32      -0.6194     3.2361     5.3589 C.ar   1 <0>      -0.1500
   33 C33       0.4702     2.6123     4.7813 C.ar   1 <0>      -0.0600
   34 C34       2.6826     4.0744     1.8743 C.3    1 <0>       0.0000
   35 H35      -2.4422     0.2161    -0.0468 H      1 <0>       0.4400
   36 H36      -4.9446     1.5192    -2.7267 H      1 <0>       0.1600
   37 H37      -4.8799     3.2034    -4.6350 H      1 <0>       0.1600
   38 H38      -3.8142     5.4255    -4.0303 H      1 <0>       0.1800
   39 H39      -2.1814     3.8119     0.0837 H      1 <0>       0.1500
   40 H40      -0.0128     5.0187     0.2057 H      1 <0>       0.1600
   41 H41       3.4203     3.2832    -1.3990 H      1 <0>       0.1100
   42 H42       4.5184     3.8217    -0.0991 H      1 <0>       0.1000
   43 H43       2.4797     0.8991    -1.2797 H      1 <0>       0.1100
   44 H44       2.3078     0.2004     0.3405 H      1 <0>       0.1100
   45 H45       3.6956     0.8816     2.1277 H      1 <0>       0.1400
   46 H46       4.6795     2.3570     2.0380 H      1 <0>       0.1400
   47 H47       2.8364     1.6385     4.1726 H      1 <0>       0.1400
   48 H48       3.6894     3.1987     4.0931 H      1 <0>       0.1400
   49 H49       2.4891     5.2881     4.3994 H      1 <0>       0.1400
   50 H50       0.5468     6.4043     5.4205 H      1 <0>       0.1500
   51 H51      -1.4918     2.6594     5.6284 H      1 <0>       0.1500
   52 H52       0.4504     1.5474     4.6024 H      1 <0>       0.1400
   53 H53       3.6633     4.5016     2.0838 H      1 <0>       0.1500
   54 H54       1.9108     4.6611     2.3725 H      1 <0>       0.1400
@<TRIPOS>BOND
   1    1    2 2
   2    2   22 am
   3    2    3 1
   4    3    4 1
   5    3   13 2
   6    4    5 am
   7    4   35 1
   8    5    6 2
   9    5    7 2
  10    5    8 1
  11    8   12 1
  12    8    9 2
  13    9   10 1
  14    9   36 1
  15   10   11 2
  16   10   37 1
  17   11   12 1
  18   11   38 1
  19   13   14 1
  20   13   39 1
  21   14   15 2
  22   14   40 1
  23   15   22 1
  24   15   16 1
  25   16   17 1
  26   16   34 1
  27   16   18 1
  28   18   19 1
  29   18   41 1
  30   18   42 1
  31   19   20 1
  32   19   21 1
  33   19   23 1
  34   21   22 1
  35   21   43 1
  36   21   44 1
  37   23   24 1
  38   23   45 1
  39   23   46 1
  40   24   25 1
  41   24   26 1
  42   24   34 1
  43   26   27 1
  44   26   47 1
  45   26   48 1
  46   27   33 ar
  47   27   28 ar
  48   28   29 ar
  49   28   49 1
  50   29   30 ar
  51   29   50 1
  52   30   31 1
  53   30   32 ar
  54   32   33 ar
  55   32   51 1
  56   33   52 1
  57   34   53 1
  58   34   54 1

@<TRIPOS>MOLECULE
ZINC000003841371
  54   58    0    0    0
SMALL
USER_CHARGES
NO_NAME
@<TRIPOS>ATOM
    1 O1        0.1120    -0.8521     2.0868 O.2    1 <0>      -0.5100
    2 C2        0.4271    -0.1565     1.1344 C.2    1 <0>       0.5100
    3 C3       -0.5272     0.1419     0.1424 C.2    1 <0>       0.0900
    4 N4       -1.8190    -0.3940     0.2157 N.am   1 <0>      -1.0300
    5 S5       -2.9319    -0.0355    -0.9570 S.o2   1 <0>       2.7100
    6 O6       -4.1139    -0.7487    -0.6200 O.2    1 <0>      -0.9200
    7 O7       -2.8968     1.3750    -1.1259 O.2    1 <0>      -0.9300
    8 C8       -2.3435    -0.7319    -2.4648 C.2    1 <0>      -0.8200
    9 C9       -2.6217    -1.9601    -2.9048 C.2    1 <0>       0.0300
   10 C10      -2.0460    -2.2887    -4.1199 C.2    1 <0>      -0.1600
   11 C11      -1.3002    -1.3275    -4.6668 C.2    1 <0>      -0.1600
   12 S12      -1.3055     0.0886    -3.6237 S.3    1 <0>       0.2100
   13 C13      -0.1746     0.9628    -0.8934 C.2    1 <0>      -0.1100
   14 C14       1.1174     1.5015    -0.9182 C.2    1 <0>      -0.1600
   15 C15       2.0089     1.2043     0.0617 C.2    1 <0>       0.0900
   16 C16       3.3319     1.9380     0.0459 C.3    1 <0>      -0.0600
   17 H17       3.6245     2.1789    -0.9761 H      1 <0>       0.1500
   18 C18       4.3972     1.0655     0.7203 C.3    1 <0>      -0.1300
   19 C19       3.8865     0.7183     2.1220 C.3    1 <0>      -0.1200
   20 H20       4.6711     0.1769     2.6505 H      1 <0>       0.1500
   21 C21       2.6717    -0.1875     2.0051 C.3    1 <0>       0.0700
   22 N22       1.6910     0.3263     1.0443 N.am   1 <0>      -0.5000
   23 C23       3.5621     1.9823     2.9042 C.3    1 <0>      -0.0100
   24 N24       2.5935     2.8160     2.1866 N.4    1 <0>      -0.3800
   25 H25       2.3987     3.6451     2.7276 H      1 <0>       0.4200
   26 C26       1.3502     2.0591     1.9879 C.3    1 <0>      -0.0700
   27 C27       0.2443     2.6891     2.7948 C.ar   1 <0>      -0.1800
   28 C28      -0.0387     2.2192     4.0638 C.ar   1 <0>      -0.0600
   29 C29      -1.0526     2.7960     4.8047 C.ar   1 <0>      -0.1500
   30 C30      -1.7850     3.8453     4.2757 C.ar   1 <0>       0.1400
   31 F31      -2.7762     4.4103     4.9993 F      1 <0>      -0.1200
   32 C32      -1.5004     4.3154     3.0049 C.ar   1 <0>      -0.1500
   33 C33      -0.4828     3.7401     2.2677 C.ar   1 <0>      -0.0600
   34 C34       3.1561     3.2210     0.8751 C.3    1 <0>       0.0000
   35 H35      -2.0619    -0.9751     0.9534 H      1 <0>       0.4400
   36 H36      -3.2485    -2.6462    -2.3544 H      1 <0>       0.1600
   37 H37      -2.1895    -3.2506    -4.5895 H      1 <0>       0.1600
   38 H38      -0.7762    -1.4055    -5.6079 H      1 <0>       0.1800
   39 H39      -0.8803     1.1911    -1.6784 H      1 <0>       0.1500
   40 H40       1.4077     2.1591    -1.7242 H      1 <0>       0.1700
   41 H41       4.5471     0.1525     0.1441 H      1 <0>       0.1100
   42 H42       5.3349     1.6164     0.7937 H      1 <0>       0.1100
   43 H43       2.9995    -1.1803     1.6969 H      1 <0>       0.1200
   44 H44       2.1918    -0.2628     2.9809 H      1 <0>       0.1200
   45 H45       3.1468     1.7060     3.8733 H      1 <0>       0.1300
   46 H46       4.4785     2.5519     3.0586 H      1 <0>       0.1400
   47 H47       1.0819     2.0720     0.9315 H      1 <0>       0.1700
   48 H48       1.4960     1.0291     2.3133 H      1 <0>       0.2000
   49 H49       0.5327     1.4007     4.4762 H      1 <0>       0.1400
   50 H50      -1.2740     2.4283     5.7957 H      1 <0>       0.1500
   51 H51      -2.0712     5.1336     2.5911 H      1 <0>       0.1500
   52 H52      -0.2604     4.1069     1.2765 H      1 <0>       0.1400
   53 H53       4.1148     3.7180     1.0235 H      1 <0>       0.1500
   54 H54       2.4649     3.8961     0.3706 H      1 <0>       0.1400
@<TRIPOS>BOND
   1    1    2 2
   2    2   22 am
   3    2    3 1
   4    3    4 1
   5    3   13 2
   6    4    5 am
   7    4   35 1
   8    5    6 2
   9    5    7 2
  10    5    8 1
  11    8   12 1
  12    8    9 2
  13    9   10 1
  14    9   36 1
  15   10   11 2
  16   10   37 1
  17   11   12 1
  18   11   38 1
  19   13   14 1
  20   13   39 1
  21   14   15 2
  22   14   40 1
  23   15   22 1
  24   15   16 1
  25   16   17 1
  26   16   34 1
  27   16   18 1
  28   18   19 1
  29   18   41 1
  30   18   42 1
  31   19   20 1
  32   19   21 1
  33   19   23 1
  34   21   22 1
  35   21   43 1
  36   21   44 1
  37   23   24 1
  38   23   45 1
  39   23   46 1
  40   24   25 1
  41   24   26 1
  42   24   34 1
  43   26   27 1
  44   26   47 1
  45   26   48 1
  46   27   33 ar
  47   27   28 ar
  48   28   29 ar
  49   28   49 1
  50   29   30 ar
  51   29   50 1
  52   30   31 1
  53   30   32 ar
  54   32   33 ar
  55   32   51 1
  56   33   52 1
  57   34   53 1
  58   34   54 1
@<TRIPOS>MOLECULE
ZINC000020603406
48    51    1     0     0
SMALL
USER_CHARGES
@<TRIPOS>ATOM
1      C1     -0.0173    1.4248    0.0099 C.3      1 ZINC000020603406    0.0100
2      O2      0.0021   -0.0041    0.0020 O.3      1 ZINC000020603406   -0.2800
3      C3     -1.1991   -0.6369    0.0101 C.ar     1 ZINC000020603406    0.1800
4      C4     -2.3732    0.0994    0.0195 C.ar     1 ZINC000020603406   -0.2200
5      C5     -3.5951   -0.5459    0.0282 C.ar     1 ZINC000020603406   -0.0500
6      C6     -3.6554   -1.9287    0.0276 C.ar     1 ZINC000020603406   -0.1600
7      C7     -2.4953   -2.6752    0.0178 C.ar     1 ZINC000020603406   -0.0500
8      C8     -1.2566   -2.0354    0.0031 C.ar     1 ZINC000020603406   -0.1100
9      C9     -0.0081   -2.8313   -0.0079 C.ar     1 ZINC000020603406    0.2700
10     C10    -0.0854   -4.2257   -0.0093 C.ar     1 ZINC000020603406   -0.1500
11     C11     1.0796   -4.9686   -0.0201 C.ar     1 ZINC000020603406   -0.0400
12     C12     1.0391   -6.4750   -0.0224 C.3      1 ZINC000020603406    0.5200
13     F13    -0.2919   -6.9058   -0.0123 F        1 ZINC000020603406   -0.1700
14     F14     1.6765   -6.9569   -1.1708 F        1 ZINC000020603406   -0.1600
15     F15     1.6951   -6.9609    1.1137 F        1 ZINC000020603406   -0.1600
16     C16     2.2953   -4.2821   -0.0293 C.ar     1 ZINC000020603406   -0.2100
17     C17     3.5852   -4.9897   -0.0416 C.2      1 ZINC000020603406    0.5500
18     O18     3.6309   -6.2050   -0.0442 O.2      1 ZINC000020603406   -0.4600
19     N19     4.7178   -4.2529   -0.0504 N.am     1 ZINC000020603406   -0.6100
20     C20     4.6726   -2.9114   -0.0475 C.2      1 ZINC000020603406    0.5200
21     S21     6.1482   -2.0435   -0.0585 S.2      1 ZINC000020603406   -0.4700
22     N22     3.5212   -2.2194   -0.0369 N.am     1 ZINC000020603406   -0.4600
23     C23     3.5569   -0.7549   -0.0355 C.3      1 ZINC000020603406    0.1000
24     C24     3.5570   -0.2433   -1.4774 C.3      1 ZINC000020603406    0.0700
25     H25     2.6646   -0.5875   -2.0003 H        1 ZINC000020603406    0.0700
26     C26     3.6297    1.3043   -1.4991 C.3      1 ZINC000020603406   -0.1400
27     C27     4.2545    1.5504   -2.8994 C.3      1 ZINC000020603406   -0.1500
28     C28     5.1983    0.3386   -3.0548 C.3      1 ZINC000020603406    0.0500
29     O29     4.7388   -0.6861   -2.1635 O.3      1 ZINC000020603406   -0.3500
30     C30     2.3017   -2.8737   -0.0273 C.ar     1 ZINC000020603406    0.4000
31     N31     1.1631   -2.2049   -0.0219 N.ar     1 ZINC000020603406   -0.4600
32     H32     1.0053    1.8021    0.0021 H        1 ZINC000020603406    0.1000
33     H33    -0.5445    1.7859   -0.8732 H        1 ZINC000020603406    0.0600
34     H34    -0.5275    1.7763    0.9067 H        1 ZINC000020603406    0.0600
35     H35    -2.3332    1.1786    0.0204 H        1 ZINC000020603406    0.1400
36     H36    -4.5076    0.0317    0.0359 H        1 ZINC000020603406    0.1300
37     H37    -4.6144   -2.4252    0.0352 H        1 ZINC000020603406    0.1400
38     H38    -2.5465   -3.7540    0.0178 H        1 ZINC000020603406    0.1400
39     H39    -1.0463   -4.7185   -0.0016 H        1 ZINC000020603406    0.1700
40     H40     5.5781   -4.7010   -0.0585 H        1 ZINC000020603406    0.4500
41     H41     2.6804   -0.3706    0.4863 H        1 ZINC000020603406    0.1200
42     H42     4.4598   -0.4139    0.4711 H        1 ZINC000020603406    0.1300
43     H43     2.6354    1.7453   -1.4295 H        1 ZINC000020603406    0.0800
44     H44     4.2795    1.6781   -0.7078 H        1 ZINC000020603406    0.0900
45     H45     3.4867    1.5458   -3.6730 H        1 ZINC000020603406    0.0700
46     H46     4.8165    2.4843   -2.9147 H        1 ZINC000020603406    0.0800
47     H47     5.1669   -0.0252   -4.0818 H        1 ZINC000020603406    0.0600
48     H48     6.2166    0.6273   -2.7944 H        1 ZINC000020603406    0.0700
@<TRIPOS>BOND
1     1     2     1
2     1     32    1
3     1     33    1
4     1     34    1
5     2     3     1
6     3     8     ar
7     3     4     ar
8     4     5     ar
9     4     35    1
10    5     6     ar
11    5     36    1
12    6     7     ar
13    6     37    1
14    7     8     ar
15    7     38    1
16    8     9     1
17    9     31    ar
18    9     10    ar
19    10    11    ar
20    10    39    1
21    11    12    1
22    11    16    ar
23    12    13    1
24    12    14    1
25    12    15    1
26    16    30    ar
27    16    17    1
28    17    18    2
29    17    19    am
30    19    20    am
31    19    40    1
32    20    21    2
33    20    22    am
34    22    23    1
35    22    30    1
36    23    24    1
37    23    41    1
38    23    42    1
39    24    25    1
40    24    29    1
41    24    26    1
42    26    27    1
43    26    43    1
44    26    44    1
45    27    28    1
46    27    45    1
47    27    46    1
48    28    29    1
49    28    47    1
50    28    48    1
51    30    31    ar
@<TRIPOS>SUBSTRUCTURE
1   ZINC000020603406 1     RESIDUE    1   A     ZIN   1
@<TRIPOS>MOLECULE
ZINC000021756775
45    47    1     0     0
SMALL
USER_CHARGES
@<TRIPOS>ATOM
1      C1      0.0201    1.4248    0.0313 C.3      1 ZINC000021756775    0.0300
2      O2      0.0197   -0.0040    0.0121 O.3      1 ZINC000021756775   -0.3700
3      C3      0.6738   -0.5702   -1.1253 C.3      1 ZINC000021756775    0.0500
4      C4      0.6137   -2.0738   -1.0425 C.2      1 ZINC000021756775    0.5200
5      O5      0.0647   -2.6079   -0.1021 O.2      1 ZINC000021756775   -0.4900
6      N6      1.1699   -2.8249   -2.0135 N.am     1 ZINC000021756775   -0.5500
7      C7      1.7248   -2.1951   -3.2193 C.3      1 ZINC000021756775    0.1000
8      C8      1.2559   -3.0099   -4.4318 C.3      1 ZINC000021756775   -0.1400
9      C9      1.8340   -4.4213   -4.3320 C.3      1 ZINC000021756775   -0.0800
10     C10     1.5392   -5.0178   -2.9807 C.ar     1 ZINC000021756775   -0.1200
11     C11     1.5815   -6.3947   -2.8340 C.ar     1 ZINC000021756775   -0.0800
12     C12     1.3197   -6.9751   -1.6094 C.ar     1 ZINC000021756775   -0.1700
13     C13     1.0121   -6.1790   -0.5130 C.ar     1 ZINC000021756775    0.1600
14     N14     0.7494   -6.7650    0.7273 N.am     1 ZINC000021756775   -1.0500
15     S15     1.7273   -7.9747    1.2952 S.o2     1 ZINC000021756775    2.6900
16     O16     1.2240   -8.3297    2.5758 O.2      1 ZINC000021756775   -0.9400
17     O17     1.8726   -8.9059    0.2317 O.2      1 ZINC000021756775   -0.9400
18     C18     3.3214   -7.2737    1.5641 C.ar     1 ZINC000021756775   -0.6700
19     C19     4.2553   -7.2697    0.5448 C.ar     1 ZINC000021756775   -0.0100
20     C20     5.5057   -6.7196    0.7551 C.ar     1 ZINC000021756775   -0.1100
21     C21     5.8226   -6.1729    1.9857 C.ar     1 ZINC000021756775   -0.0400
22     Br22    7.5329   -5.4196    2.2738 Br       1 ZINC000021756775   -0.0300
23     C23     4.8878   -6.1772    3.0052 C.ar     1 ZINC000021756775   -0.1100
24     C24     3.6358   -6.7228    2.7924 C.ar     1 ZINC000021756775   -0.0100
25     C25     0.9673   -4.7996   -0.6549 C.ar     1 ZINC000021756775   -0.1600
26     C26     1.2339   -4.2196   -1.8870 C.ar     1 ZINC000021756775    0.1700
27     H27     1.0479    1.7878    0.0376 H        1 ZINC000021756775    0.0500
28     H28    -0.4924    1.8003   -0.8545 H        1 ZINC000021756775    0.0500
29     H29    -0.4949    1.7763    0.9253 H        1 ZINC000021756775    0.1000
30     H30     0.1749   -0.2362   -2.0350 H        1 ZINC000021756775    0.0800
31     H31     1.7151   -0.2487   -1.1430 H        1 ZINC000021756775    0.0900
32     H32     1.3624   -1.1703   -3.3007 H        1 ZINC000021756775    0.0900
33     H33     2.8137   -2.1995   -3.1704 H        1 ZINC000021756775    0.0800
34     H34     0.1671   -3.0609   -4.4386 H        1 ZINC000021756775    0.0800
35     H35     1.6068   -2.5356   -5.3484 H        1 ZINC000021756775    0.0900
36     H36     1.3903   -5.0473   -5.1061 H        1 ZINC000021756775    0.0800
37     H37     2.9133   -4.3792   -4.4789 H        1 ZINC000021756775    0.0800
38     H38     1.8205   -7.0178   -3.6831 H        1 ZINC000021756775    0.1400
39     H39     1.3543   -8.0493   -1.5032 H        1 ZINC000021756775    0.1600
40     H40    -0.0059   -6.4635    1.2560 H        1 ZINC000021756775    0.4300
41     H41     4.0080   -7.6968   -0.4158 H        1 ZINC000021756775    0.1500
42     H42     6.2354   -6.7168   -0.0411 H        1 ZINC000021756775    0.1400
43     H43     5.1347   -5.7505    3.9661 H        1 ZINC000021756775    0.1500
44     H44     2.9059   -6.7262    3.5884 H        1 ZINC000021756775    0.1500
45     H45     0.7285   -4.1767    0.1944 H        1 ZINC000021756775    0.1700
@<TRIPOS>BOND
1     1     2     1
2     1     27    1
3     1     28    1
4     1     29    1
5     2     3     1
6     3     4     1
7     3     30    1
8     3     31    1
9     4     5     2
10    4     6     am
11    6     26    1
12    6     7     1
13    7     8     1
14    7     32    1
15    7     33    1
16    8     9     1
17    8     34    1
18    8     35    1
19    9     10    1
20    9     36    1
21    9     37    1
22    10    26    ar
23    10    11    ar
24    11    12    ar
25    11    38    1
26    12    13    ar
27    12    39    1
28    13    14    1
29    13    25    ar
30    14    15    am
31    14    40    1
32    15    16    2
33    15    17    2
34    15    18    1
35    18    24    ar
36    18    19    ar
37    19    20    ar
38    19    41    1
39    20    21    ar
40    20    42    1
41    21    22    1
42    21    23    ar
43    23    24    ar
44    23    43    1
45    24    44    1
46    25    26    ar
47    25    45    1
@<TRIPOS>SUBSTRUCTURE
1   ZINC000021756775 1     RESIDUE    1   A     ZIN   1

@<TRIPOS>MOLECULE
ZINC000021756775
44    46    1     0     0
SMALL
USER_CHARGES
@<TRIPOS>ATOM
1      C1     -1.2509   -2.2701    2.1560 C.3      1 ZINC000021756775    0.0300
2      O2     -0.5783   -1.7418    1.0112 O.3      1 ZINC000021756775   -0.3600
3      C3     -0.0722   -2.7398    0.1224 C.3      1 ZINC000021756775    0.0500
4      C4      0.6137   -2.0738   -1.0425 C.2      1 ZINC000021756775    0.5000
5      O5      0.5863   -0.8662   -1.1528 O.2      1 ZINC000021756775   -0.4800
6      N6      1.2575   -2.8200   -1.9618 N.am     1 ZINC000021756775   -0.5500
7      C7      1.2258   -4.2870   -1.8880 C.3      1 ZINC000021756775    0.1000
8      C8      2.6502   -4.7998   -2.1368 C.3      1 ZINC000021756775   -0.1300
9      C9      3.0750   -4.4109   -3.5526 C.3      1 ZINC000021756775   -0.0600
10     C10     2.8522   -2.9395   -3.7847 C.ar     1 ZINC000021756775   -0.2200
11     C11     3.5498   -2.3100   -4.8028 C.ar     1 ZINC000021756775   -0.0500
12     C12     3.3680   -0.9636   -5.0455 C.ar     1 ZINC000021756775   -0.2800
13     C13     2.4806   -0.2295   -4.2681 C.ar     1 ZINC000021756775    0.2900
14     N14     2.2939    1.1326   -4.5144 N.pl3    1 ZINC000021756775   -1.0800
15     S15     3.1309    1.8757   -5.7349 S.o2     1 ZINC000021756775    2.6000
16     O16     4.4997    1.8545   -5.3535 O.2      1 ZINC000021756775   -1.0300
17     O17     2.6537    1.3130   -6.9493 O.2      1 ZINC000021756775   -1.0300
18     C18     2.6437    3.5690   -5.7458 C.ar     1 ZINC000021756775   -0.6000
19     C19     1.5647    3.9726   -6.5100 C.ar     1 ZINC000021756775   -0.0200
20     C20     1.1819    5.3006   -6.5186 C.ar     1 ZINC000021756775   -0.1200
21     C21     1.8784    6.2259   -5.7622 C.ar     1 ZINC000021756775   -0.0500
22     Br22    1.3547    8.0429   -5.7730 Br       1 ZINC000021756775   -0.0600
23     C23     2.9579    5.8216   -4.9977 C.ar     1 ZINC000021756775   -0.1200
24     C24     3.3369    4.4924   -4.9857 C.ar     1 ZINC000021756775   -0.0200
25     C25     1.7804   -0.8548   -3.2466 C.ar     1 ZINC000021756775   -0.2100
26     C26     1.9637   -2.2093   -3.0075 C.ar     1 ZINC000021756775    0.1800
27     H27    -2.0994   -2.8731    1.8327 H        1 ZINC000021756775    0.0400
28     H28    -0.5613   -2.8905    2.7283 H        1 ZINC000021756775    0.0400
29     H29    -1.6050   -1.4496    2.7801 H        1 ZINC000021756775    0.0900
30     H30     0.6419   -3.3700    0.6526 H        1 ZINC000021756775    0.0800
31     H31    -0.8963   -3.3525   -0.2430 H        1 ZINC000021756775    0.0800
32     H32     0.8882   -4.5997   -0.8999 H        1 ZINC000021756775    0.0800
33     H33     0.5533   -4.6805   -2.6503 H        1 ZINC000021756775    0.0800
34     H34     3.3316   -4.3501   -1.4146 H        1 ZINC000021756775    0.0700
35     H35     2.6708   -5.8848   -2.0344 H        1 ZINC000021756775    0.0800
36     H36     4.1321   -4.6403   -3.6868 H        1 ZINC000021756775    0.0600
37     H37     2.4894   -4.9815   -4.2734 H        1 ZINC000021756775    0.0600
38     H38     4.2404   -2.8764   -5.4101 H        1 ZINC000021756775    0.1000
39     H39     3.9158   -0.4801   -5.8409 H        1 ZINC000021756775    0.1000
40     H40     1.0212    3.2501   -7.1008 H        1 ZINC000021756775    0.1500
41     H41     0.3392    5.6159   -7.1159 H        1 ZINC000021756775    0.1400
42     H42     3.5021    6.5437   -4.4070 H        1 ZINC000021756775    0.1400
43     H43     4.1797    4.1766   -4.3887 H        1 ZINC000021756775    0.1500
44     H44     1.0897   -0.2883   -2.6397 H        1 ZINC000021756775    0.1700
@<TRIPOS>BOND
1     1     2     1
2     1     27    1
3     1     28    1
4     1     29    1
5     2     3     1
6     3     4     1
7     3     30    1
8     3     31    1
9     4     5     2
10    4     6     am
11    6     26    1
12    6     7     1
13    7     8     1
14    7     32    1
15    7     33    1
16    8     9     1
17    8     34    1
18    8     35    1
19    9     10    1
20    9     36    1
21    9     37    1
22    10    26    ar
23    10    11    ar
24    11    12    ar
25    11    38    1
26    12    13    ar
27    12    39    1
28    13    14    1
29    13    25    ar
30    14    15    1
31    15    16    2
32    15    17    2
33    15    18    1
34    18    24    ar
35    18    19    ar
36    19    20    ar
37    19    40    1
38    20    21    ar
39    20    41    1
40    21    22    1
41    21    23    ar
42    23    24    ar
43    23    42    1
44    24    43    1
45    25    26    ar
46    25    44    1
@<TRIPOS>SUBSTRUCTURE
1   ZINC000021756775 1     RESIDUE    1   A     ZIN   1
@<TRIPOS>MOLECULE
ZINC000031776718
40    41    1     0     0
SMALL
USER_CHARGES
@<TRIPOS>ATOM
1      C1      0.5140    3.2767    1.6311 C.3      1 ZINC000031776718    0.0200
2      O2      0.6269    1.9012    1.2607 O.3      1 ZINC000031776718   -0.3000
3      C3      1.1697    1.0577    2.1779 C.ar     1 ZINC000031776718    0.1900
4      C4      1.5797    1.5428    3.4106 C.ar     1 ZINC000031776718   -0.2300
5      C5      2.1313    0.6833    4.3415 C.ar     1 ZINC000031776718    0.0400
6      C6      2.2752   -0.6592    4.0450 C.ar     1 ZINC000031776718   -0.6500
7      S7      2.9795   -1.7519    5.2344 S.o2     1 ZINC000031776718    2.6100
8      O8      3.4978   -2.8570    4.5066 O.2      1 ZINC000031776718   -1.0200
9      O9      3.7730   -0.9485    6.0971 O.2      1 ZINC000031776718   -1.0200
10     N10     1.7361   -2.3407    6.1560 N.pl3    1 ZINC000031776718   -1.0500
11     C11     1.9979   -3.2360    7.1850 C.ar     1 ZINC000031776718    0.3400
12     C12     3.3015   -3.6353    7.4477 C.ar     1 ZINC000031776718   -0.2600
13     C13     3.5592   -4.5256    8.4721 C.ar     1 ZINC000031776718    0.0500
14     Cl14    5.1916   -5.0200    8.7953 Cl       1 ZINC000031776718   -0.1000
15     C15     2.5214   -5.0265    9.2444 C.ar     1 ZINC000031776718   -0.2300
16     C16     1.2222   -4.6417    8.9976 C.ar     1 ZINC000031776718   -0.0300
17     C17     0.9461   -3.7375    7.9687 C.ar     1 ZINC000031776718   -0.2100
18     C18    -0.4420   -3.3215    7.7001 C.2      1 ZINC000031776718    0.5900
19     O19    -0.7115   -2.1413    7.5843 O.2      1 ZINC000031776718   -0.5200
20     N20    -1.4127   -4.2490    7.5828 N.am     1 ZINC000031776718   -0.6300
21     C21    -2.7732   -3.8437    7.2209 C.3      1 ZINC000031776718    0.0900
22     C22    -1.1074   -5.6625    7.8172 C.3      1 ZINC000031776718    0.0800
23     C23     1.8669   -1.1462    2.8168 C.ar     1 ZINC000031776718    0.0400
24     C24     1.3094   -0.2920    1.8844 C.ar     1 ZINC000031776718   -0.1500
25     Br25    0.7512   -0.9582    0.2050 Br       1 ZINC000031776718   -0.0400
26     H26     1.5044    3.6772    1.8473 H        1 ZINC000031776718    0.0600
27     H27     0.0661    3.8382    0.8112 H        1 ZINC000031776718    0.1000
28     H28    -0.1146    3.3640    2.5173 H        1 ZINC000031776718    0.0600
29     H29     1.4683    2.5916    3.6429 H        1 ZINC000031776718    0.1400
30     H30     2.4507    1.0609    5.3017 H        1 ZINC000031776718    0.1500
31     H31     4.1146   -3.2498    6.8505 H        1 ZINC000031776718    0.1100
32     H32     2.7333   -5.7220   10.0430 H        1 ZINC000031776718    0.1200
33     H33     0.4180   -5.0350    9.6017 H        1 ZINC000031776718    0.1200
34     H34    -2.8803   -3.8584    6.1363 H        1 ZINC000031776718    0.0500
35     H35    -3.4888   -4.5350    7.6660 H        1 ZINC000031776718    0.0600
36     H36    -2.9628   -2.8362    7.5911 H        1 ZINC000031776718    0.0700
37     H37    -1.3132   -5.9109    8.8584 H        1 ZINC000031776718    0.0500
38     H38    -1.7265   -6.2807    7.1670 H        1 ZINC000031776718    0.0600
39     H39    -0.0553   -5.8478    7.6007 H        1 ZINC000031776718    0.0800
40     H40     1.9804   -2.1955    2.5876 H        1 ZINC000031776718    0.1500
@<TRIPOS>BOND
1     1     2     1
2     1     26    1
3     1     27    1
4     1     28    1
5     2     3     1
6     3     24    ar
7     3     4     ar
8     4     5     ar
9     4     29    1
10    5     6     ar
11    5     30    1
12    6     7     1
13    6     23    ar
14    7     8     2
15    7     9     2
16    7     10    1
17    10    11    1
18    11    17    ar
19    11    12    ar
20    12    13    ar
21    12    31    1
22    13    14    1
23    13    15    ar
24    15    16    ar
25    15    32    1
26    16    17    ar
27    16    33    1
28    17    18    1
29    18    19    2
30    18    20    am
31    20    21    1
32    20    22    1
33    21    34    1
34    21    35    1
35    21    36    1
36    22    37    1
37    22    38    1
38    22    39    1
39    23    24    ar
40    23    40    1
41    24    25    1
@<TRIPOS>SUBSTRUCTURE
1   ZINC000031776718 1     RESIDUE    1   A     ZIN   1
@<TRIPOS>MOLECULE
ZINC000032944012
46    49    1     0     0
SMALL
USER_CHARGES
@<TRIPOS>ATOM
1      C1      0.6088    1.2941    0.2999 C.3      1 ZINC000032944012   -0.1300
2      C2      0.6115   -0.2327    0.2010 C.3      1 ZINC000032944012   -0.1000
3      H3     -0.4134   -0.6034    0.1870 H        1 ZINC000032944012    0.1100
4      C4      1.3402   -0.6697   -1.0785 C.3      1 ZINC000032944012    0.1000
5      N5      1.2155   -2.1180   -1.2144 N.am     1 ZINC000032944012   -0.5500
6      C6      0.7265   -2.6183   -2.3664 C.2      1 ZINC000032944012    0.5400
7      O7      0.6455   -3.8188   -2.5202 O.2      1 ZINC000032944012   -0.5000
8      C8      0.2803   -1.6863   -3.4634 C.3      1 ZINC000032944012   -0.2100
9      C9      1.0600   -1.7198   -4.7794 C.3      1 ZINC000032944012   -0.1500
10     C10    -0.3490   -2.3122   -4.7096 C.3      1 ZINC000032944012   -0.1400
11     C11     1.5821   -3.0074   -0.2010 C.ar     1 ZINC000032944012    0.1200
12     C12     1.7952   -4.3394   -0.5474 C.ar     1 ZINC000032944012   -0.0400
13     C13     2.1509   -5.2641    0.4137 C.ar     1 ZINC000032944012   -0.6700
14     S14     2.4180   -6.9454   -0.0407 S.o2     1 ZINC000032944012    2.6900
15     O15     2.2155   -7.7161    1.1358 O.2      1 ZINC000032944012   -0.9400
16     O16     1.6904   -7.1565   -1.2429 O.2      1 ZINC000032944012   -0.9300
17     N17     4.0200   -7.0993   -0.4306 N.am     1 ZINC000032944012   -1.0500
18     C18     5.0033   -6.8155    0.5246 C.ar     1 ZINC000032944012    0.1200
19     C19     4.7839   -7.1222    1.8599 C.ar     1 ZINC000032944012   -0.1200
20     C20     5.7560   -6.8417    2.8016 C.ar     1 ZINC000032944012   -0.1300
21     C21     6.9484   -6.2551    2.4144 C.ar     1 ZINC000032944012    0.1200
22     F22     7.8968   -5.9826    3.3371 F        1 ZINC000032944012   -0.1300
23     C23     7.1710   -5.9474    1.0824 C.ar     1 ZINC000032944012   -0.1700
24     C24     6.2040   -6.2308    0.1359 C.ar     1 ZINC000032944012    0.1100
25     F25     6.4208   -5.9309   -1.1634 F        1 ZINC000032944012   -0.1200
26     C26     2.2987   -4.8744    1.7320 C.ar     1 ZINC000032944012   -0.0200
27     C27     2.0934   -3.5558    2.0875 C.ar     1 ZINC000032944012   -0.1000
28     C28     1.7386   -2.6171    1.1252 C.ar     1 ZINC000032944012   -0.0600
29     S29     1.5021   -0.9394    1.6184 S.3      1 ZINC000032944012   -0.0800
30     H30     1.6357    1.6592    0.3135 H        1 ZINC000032944012    0.0700
31     H31     0.0856    1.7129   -0.5597 H        1 ZINC000032944012    0.0800
32     H32     0.1030    1.5979    1.2164 H        1 ZINC000032944012    0.0800
33     H33     0.8885   -0.1809   -1.9418 H        1 ZINC000032944012    0.1200
34     H34     2.3935   -0.3979   -1.0106 H        1 ZINC000032944012    0.1000
35     H35    -0.1086   -0.7232   -3.1328 H        1 ZINC000032944012    0.1300
36     H36     1.1843   -0.7785   -5.3148 H        1 ZINC000032944012    0.1100
37     H37     1.8956   -2.4159   -4.8518 H        1 ZINC000032944012    0.1000
38     H38    -0.4403   -3.3980   -4.7361 H        1 ZINC000032944012    0.1100
39     H39    -1.1516   -1.7606   -5.1992 H        1 ZINC000032944012    0.1100
40     H40     1.6810   -4.6511   -1.5751 H        1 ZINC000032944012    0.2000
41     H41     4.2772   -7.3861   -1.3208 H        1 ZINC000032944012    0.4300
42     H42     3.8539   -7.5797    2.1634 H        1 ZINC000032944012    0.1800
43     H43     5.5849   -7.0803    3.8409 H        1 ZINC000032944012    0.1500
44     H44     8.1020   -5.4894    0.7825 H        1 ZINC000032944012    0.1600
45     H45     2.5746   -5.6002    2.4827 H        1 ZINC000032944012    0.1500
46     H46     2.2083   -3.2526    3.1177 H        1 ZINC000032944012    0.1400
@<TRIPOS>BOND
1     1     2     1
2     1     30    1
3     1     31    1
4     1     32    1
5     2     3     1
6     2     29    1
7     2     4     1
8     4     5     1
9     4     33    1
10    4     34    1
11    5     6     am
12    5     11    1
13    6     7     2
14    6     8     1
15    8     10    1
16    8     9     1
17    8     35    1
18    9     10    1
19    9     36    1
20    9     37    1
21    10    38    1
22    10    39    1
23    11    28    ar
24    11    12    ar
25    12    13    ar
26    12    40    1
27    13    14    1
28    13    26    ar
29    14    15    2
30    14    16    2
31    14    17    am
32    17    18    1
33    17    41    1
34    18    24    ar
35    18    19    ar
36    19    20    ar
37    19    42    1
38    20    21    ar
39    20    43    1
40    21    22    1
41    21    23    ar
42    23    24    ar
43    23    44    1
44    24    25    1
45    26    27    ar
46    26    45    1
47    27    28    ar
48    27    46    1
49    28    29    1
@<TRIPOS>SUBSTRUCTURE
1   ZINC000032944012 1     RESIDUE    1   A     ZIN   1

@<TRIPOS>MOLECULE
ZINC000032944012
45    48    1     0     0
SMALL
USER_CHARGES
@<TRIPOS>ATOM
1      C1      0.5036    1.5817   -0.1070 C.3      1 ZINC000032944012   -0.1300
2      C2      0.4303    0.0539   -0.0726 C.3      1 ZINC000032944012   -0.1000
3      H3     -0.6042   -0.2630    0.0599 H        1 ZINC000032944012    0.1000
4      C4      0.9874   -0.5232   -1.3824 C.3      1 ZINC000032944012    0.1000
5      N5      0.7867   -1.9694   -1.3773 N.am     1 ZINC000032944012   -0.5500
6      C6      0.1474   -2.5358   -2.4198 C.2      1 ZINC000032944012    0.5300
7      O7     -0.0099   -3.7381   -2.4542 O.2      1 ZINC000032944012   -0.4900
8      C8     -0.3721   -1.6756   -3.5428 C.3      1 ZINC000032944012   -0.2000
9      C9      0.3667   -1.7390   -4.8811 C.3      1 ZINC000032944012   -0.1500
10     C10    -1.0130   -2.3847   -4.7375 C.3      1 ZINC000032944012   -0.1400
11     C11     1.2297   -2.7910   -0.3376 C.ar     1 ZINC000032944012    0.1200
12     C12     1.3448   -4.1561   -0.5884 C.ar     1 ZINC000032944012   -0.0400
13     C13     1.7694   -5.0166    0.4038 C.ar     1 ZINC000032944012   -0.6000
14     S14     1.9109   -6.7409    0.0703 S.o2     1 ZINC000032944012    2.6100
15     O15     1.8129   -7.4016    1.3245 O.2      1 ZINC000032944012   -1.0200
16     O16     1.0412   -7.0113   -1.0206 O.2      1 ZINC000032944012   -1.0200
17     N17     3.4494   -7.0091   -0.4806 N.pl3    1 ZINC000032944012   -1.0800
18     C18     3.8525   -8.3037   -0.8288 C.ar     1 ZINC000032944012    0.2500
19     C19     2.9621   -9.3621   -0.7181 C.ar     1 ZINC000032944012   -0.2200
20     C20     3.3617  -10.6396   -1.0628 C.ar     1 ZINC000032944012   -0.1000
21     C21     4.6492  -10.8647   -1.5182 C.ar     1 ZINC000032944012    0.0000
22     F22     5.0367  -12.1144   -1.8547 F        1 ZINC000032944012   -0.1600
23     C23     5.5409   -9.8107   -1.6300 C.ar     1 ZINC000032944012   -0.1400
24     C24     5.1444   -8.5303   -1.2916 C.ar     1 ZINC000032944012    0.0500
25     F25     6.0138   -7.5020   -1.4006 F        1 ZINC000032944012   -0.1400
26     C26     2.0845   -4.5290    1.6586 C.ar     1 ZINC000032944012   -0.0300
27     C27     1.9776   -3.1769    1.9188 C.ar     1 ZINC000032944012   -0.1100
28     C28     1.5544   -2.3026    0.9240 C.ar     1 ZINC000032944012   -0.0800
29     S29     1.4476   -0.5802    1.2928 S.3      1 ZINC000032944012   -0.1100
30     H30     1.5398    1.8929   -0.2395 H        1 ZINC000032944012    0.0700
31     H31    -0.0970    1.9557   -0.9362 H        1 ZINC000032944012    0.0800
32     H32     0.1201    1.9851    0.8302 H        1 ZINC000032944012    0.0700
33     H33     0.4603   -0.0837   -2.2292 H        1 ZINC000032944012    0.1100
34     H34     2.0521   -0.3018   -1.4561 H        1 ZINC000032944012    0.0900
35     H35    -0.7910   -0.7147   -3.2439 H        1 ZINC000032944012    0.1300
36     H36     0.4341   -0.8197   -5.4629 H        1 ZINC000032944012    0.1100
37     H37     1.2284   -2.4030   -4.9493 H        1 ZINC000032944012    0.1000
38     H38    -1.0589   -3.4734   -4.7113 H        1 ZINC000032944012    0.1100
39     H39    -1.8532   -1.8901   -5.2248 H        1 ZINC000032944012    0.1100
40     H40     1.0998   -4.5442   -1.5661 H        1 ZINC000032944012    0.1900
41     H41     1.9573   -9.1879   -0.3625 H        1 ZINC000032944012    0.1100
42     H42     2.6686  -11.4633   -0.9762 H        1 ZINC000032944012    0.1200
43     H43     6.5451   -9.9887   -1.9853 H        1 ZINC000032944012    0.1300
44     H44     2.4142   -5.2044    2.4342 H        1 ZINC000032944012    0.1400
45     H45     2.2233   -2.7971    2.8995 H        1 ZINC000032944012    0.1400
@<TRIPOS>BOND
1     1     2     1
2     1     30    1
3     1     31    1
4     1     32    1
5     2     3     1
6     2     29    1
7     2     4     1
8     4     5     1
9     4     33    1
10    4     34    1
11    5     6     am
12    5     11    1
13    6     7     2
14    6     8     1
15    8     10    1
16    8     9     1
17    8     35    1
18    9     10    1
19    9     36    1
20    9     37    1
21    10    38    1
22    10    39    1
23    11    28    ar
24    11    12    ar
25    12    13    ar
26    12    40    1
27    13    14    1
28    13    26    ar
29    14    15    2
30    14    16    2
31    14    17    1
32    17    18    1
33    18    24    ar
34    18    19    ar
35    19    20    ar
36    19    41    1
37    20    21    ar
38    20    42    1
39    21    22    1
40    21    23    ar
41    23    24    ar
42    23    43    1
43    24    25    1
44    26    27    ar
45    26    44    1
46    27    28    ar
47    27    45    1
48    28    29    1
@<TRIPOS>SUBSTRUCTURE
1   ZINC000032944012 1     RESIDUE    1   A     ZIN   1
@<TRIPOS>MOLECULE
ZINC000035327420
32    34    1     0     0
SMALL
USER_CHARGES
@<TRIPOS>ATOM
1      C1     -0.8721    1.1249    1.1747 C.3      1 ZINC000035327420    0.0300
2      O2     -0.5051   -0.1844    0.7355 O.3      1 ZINC000035327420   -0.3200
3      C3     -1.5143   -1.0744    0.5360 C.ar     1 ZINC000035327420    0.1600
4      C4     -1.9437   -1.8840    1.5802 C.ar     1 ZINC000035327420    0.0200
5      O5     -1.5298   -1.9830    2.8782 O.3      1 ZINC000035327420   -0.2900
6      C6     -2.5906   -2.6702    3.5681 C.3      1 ZINC000035327420    0.2100
7      O7     -3.2106   -3.4626    2.5381 O.3      1 ZINC000035327420   -0.2900
8      C8     -2.9760   -2.7927    1.3716 C.ar     1 ZINC000035327420    0.0900
9      C9     -3.5715   -2.8870    0.1226 C.ar     1 ZINC000035327420   -0.0800
10     Br10   -4.9751   -4.1216   -0.1630 Br       1 ZINC000035327420   -0.0100
11     C11    -3.1408   -2.0794   -0.9144 C.ar     1 ZINC000035327420    0.0100
12     C12    -3.7913   -2.1853   -2.2697 C.3      1 ZINC000035327420    0.0700
13     H13    -4.8134   -2.5535   -2.1819 H        1 ZINC000035327420    0.1100
14     O14    -3.7562   -0.9193   -2.9593 O.3      1 ZINC000035327420   -0.2000
15     N15    -3.5507   -1.1863   -4.3325 N.2      1 ZINC000035327420   -0.2500
16     C16    -3.1005   -2.3766   -4.5504 C.2      1 ZINC000035327420    0.0600
17     C17    -2.7795   -2.9502   -5.8689 C.2      1 ZINC000035327420    0.5500
18     O18    -2.9355   -2.2816   -6.8811 O.co2    1 ZINC000035327420   -0.6500
19     O19    -2.3570   -4.0950   -5.9513 O.co2    1 ZINC000035327420   -0.6600
20     C20    -2.9583   -3.0834   -3.2151 C.3      1 ZINC000035327420   -0.0900
21     H21    -3.3764   -4.0889   -3.2631 H        1 ZINC000035327420    0.1100
22     C22    -1.4930   -3.1272   -2.7771 C.3      1 ZINC000035327420   -0.1600
23     C23    -2.1192   -1.1704   -0.7088 C.ar     1 ZINC000035327420   -0.0900
24     Br24   -1.5347   -0.0689   -2.1304 Br       1 ZINC000035327420    0.0400
25     H25     0.0247    1.7326    1.2946 H        1 ZINC000035327420    0.1000
26     H26    -1.5272    1.5858    0.4355 H        1 ZINC000035327420    0.0600
27     H27    -1.3939    1.0550    2.1292 H        1 ZINC000035327420    0.0500
28     H28    -2.1860   -3.3101    4.3523 H        1 ZINC000035327420    0.1400
29     H29    -3.3025   -1.9570    3.9835 H        1 ZINC000035327420    0.0900
30     H30    -1.0659   -2.1261   -2.8367 H        1 ZINC000035327420    0.0700
31     H31    -1.4313   -3.4879   -1.7503 H        1 ZINC000035327420    0.0500
32     H32    -0.9379   -3.7986   -3.4321 H        1 ZINC000035327420    0.0800
@<TRIPOS>BOND
1     1     2     1
2     1     25    1
3     1     26    1
4     1     27    1
5     2     3     1
6     3     23    ar
7     3     4     ar
8     4     8     ar
9     4     5     1
10    5     6     1
11    6     7     1
12    6     28    1
13    6     29    1
14    7     8     1
15    8     9     ar
16    9     10    1
17    9     11    ar
18    11    12    1
19    11    23    ar
20    12    13    1
21    12    20    1
22    12    14    1
23    14    15    1
24    15    16    2
25    16    17    1
26    16    20    1
27    17    18    ar
28    17    19    ar
29    20    21    1
30    20    22    1
31    22    30    1
32    22    31    1
33    22    32    1
34    23    24    1
@<TRIPOS>SUBSTRUCTURE
1   ZINC000035327420 1     RESIDUE    1   A     ZIN   1
@<TRIPOS>MOLECULE
ZINC000036614367
46    49    1     0     0
SMALL
USER_CHARGES
@<TRIPOS>ATOM
1      C1     -0.0184    1.5028    0.0103 C.3      1 ZINC000036614367   -0.1000
2      C2      0.0021   -0.0041    0.0020 C.2      1 ZINC000036614367    0.1700
3      C3      0.0080   -0.8052   -1.1053 C.2      1 ZINC000036614367   -0.2400
4      C4     -0.0052   -0.3513   -2.5152 C.ar     1 ZINC000036614367    0.3200
5      C5     -0.0025   -1.3004   -3.5395 C.ar     1 ZINC000036614367   -0.1500
6      C6     -0.0148   -0.8838   -4.8461 C.ar     1 ZINC000036614367   -0.0300
7      C7     -0.0128   -1.8800   -5.9769 C.3      1 ZINC000036614367    0.5200
8      F8      0.0026   -3.1779   -5.4549 F        1 ZINC000036614367   -0.1700
9      F9     -1.1618   -1.7040   -6.7554 F        1 ZINC000036614367   -0.1600
10     F10     1.1226   -1.6829   -6.7701 F        1 ZINC000036614367   -0.1600
11     C11    -0.0296    0.4894   -5.0992 C.ar     1 ZINC000036614367   -0.2200
12     C12    -0.0439    1.0258   -6.4687 C.2      1 ZINC000036614367    0.5500
13     O13    -0.0433    0.2815   -7.4308 O.2      1 ZINC000036614367   -0.4500
14     N14    -0.0582    2.3672   -6.6296 N.am     1 ZINC000036614367   -0.6100
15     C15    -0.0594    3.1933   -5.5717 C.2      1 ZINC000036614367    0.5300
16     S16    -0.0785    4.8820   -5.8527 S.2      1 ZINC000036614367   -0.4900
17     N17    -0.0468    2.7538   -4.3021 N.am     1 ZINC000036614367   -0.4300
18     C18    -0.0495    3.6775   -3.2497 C.ar     1 ZINC000036614367    0.1200
19     C19    -1.2523    4.1198   -2.7153 C.ar     1 ZINC000036614367   -0.0800
20     C20    -1.2515    5.0307   -1.6769 C.ar     1 ZINC000036614367   -0.1100
21     C21    -0.0548    5.5023   -1.1699 C.ar     1 ZINC000036614367   -0.0900
22     C22     1.1450    5.0638   -1.7001 C.ar     1 ZINC000036614367   -0.1100
23     C23     1.1511    4.1489   -2.7345 C.ar     1 ZINC000036614367   -0.0400
24     C24     2.4588    3.6715   -3.3115 C.3      1 ZINC000036614367   -0.1200
25     C25    -0.0315    1.3972   -4.0226 C.ar     1 ZINC000036614367    0.4100
26     N26    -0.0249    0.9502   -2.7798 N.ar     1 ZINC000036614367   -0.4800
27     C27     0.0290   -2.1430   -0.6599 C.2      1 ZINC000036614367    0.0900
28     N28     0.0352   -2.1345    0.6461 N.2      1 ZINC000036614367   -0.2900
29     N29     0.0237   -0.8048    1.0837 N.pl3    1 ZINC000036614367   -0.3600
30     C30     0.0259   -0.3609    2.4799 C.3      1 ZINC000036614367    0.0900
31     H31     1.0042    1.8801    0.0026 H        1 ZINC000036614367    0.0900
32     H32    -0.5455    1.8639   -0.8728 H        1 ZINC000036614367    0.1100
33     H33    -0.5286    1.8543    0.9071 H        1 ZINC000036614367    0.0700
34     H34     0.0095   -2.3544   -3.3046 H        1 ZINC000036614367    0.1700
35     H35    -0.0675    2.7397   -7.5252 H        1 ZINC000036614367    0.4500
36     H36    -2.1874    3.7522   -3.1114 H        1 ZINC000036614367    0.1200
37     H37    -2.1868    5.3750   -1.2608 H        1 ZINC000036614367    0.1300
38     H38    -0.0569    6.2150   -0.3585 H        1 ZINC000036614367    0.1300
39     H39     2.0781    5.4343   -1.3022 H        1 ZINC000036614367    0.1300
40     H40     2.7936    2.7868   -2.7698 H        1 ZINC000036614367    0.0700
41     H41     2.3224    3.4231   -4.3640 H        1 ZINC000036614367    0.0600
42     H42     3.2064    4.4593   -3.2180 H        1 ZINC000036614367    0.0800
43     H43     0.0384   -3.0210   -1.2887 H        1 ZINC000036614367    0.1900
44     H44     1.0540   -0.2407    2.8213 H        1 ZINC000036614367    0.0800
45     H45    -0.4970    0.5922    2.5590 H        1 ZINC000036614367    0.0900
46     H46    -0.4778   -1.1040    3.0982 H        1 ZINC000036614367    0.1000
@<TRIPOS>BOND
1     1     2     1
2     1     31    1
3     1     32    1
4     1     33    1
5     2     29    1
6     2     3     2
7     3     4     1
8     3     27    1
9     4     26    ar
10    4     5     ar
11    5     6     ar
12    5     34    1
13    6     7     1
14    6     11    ar
15    7     8     1
16    7     9     1
17    7     10    1
18    11    25    ar
19    11    12    1
20    12    13    2
21    12    14    am
22    14    15    am
23    14    35    1
24    15    16    2
25    15    17    am
26    17    18    1
27    17    25    1
28    18    23    ar
29    18    19    ar
30    19    20    ar
31    19    36    1
32    20    21    ar
33    20    37    1
34    21    22    ar
35    21    38    1
36    22    23    ar
37    22    39    1
38    23    24    1
39    24    40    1
40    24    41    1
41    24    42    1
42    25    26    ar
43    27    28    2
44    27    43    1
45    28    29    1
46    29    30    1
47    30    44    1
48    30    45    1
49    30    46    1
@<TRIPOS>SUBSTRUCTURE
1   ZINC000036614367 1     RESIDUE    1   A     ZIN   1
@<TRIPOS>MOLECULE
ZINC000022876446
51    55    1     0     0
SMALL
USER_CHARGES
@<TRIPOS>ATOM
1      C1     -0.8018   -7.2422   -7.9568 C.3      1 ZINC000022876446   -0.0500
2      C2     -0.7550   -6.9107   -6.4874 C.2      1 ZINC000022876446    0.2200
3      N3      0.2613   -7.1257   -5.6959 N.2      1 ZINC000022876446   -0.3100
4      N4     -0.1031   -6.6723   -4.4029 N.pl3    1 ZINC000022876446   -0.3400
5      C5      0.4324   -6.5847   -3.1422 C.2      1 ZINC000022876446    0.4300
6      O6      1.6945   -7.0260   -2.8911 O.3      1 ZINC000022876446   -0.6800
7      C7     -0.3076   -6.0596   -2.1733 C.2      1 ZINC000022876446   -0.4000
8      C8      0.0794   -5.8689   -0.7294 C.3      1 ZINC000022876446    0.2900
9      H9      1.0499   -6.3313   -0.5492 H        1 ZINC000022876446    0.0800
10     C10     0.1598   -4.3959   -0.4213 C.2      1 ZINC000022876446   -0.1300
11     C11     1.2891   -3.7049   -0.2587 C.2      1 ZINC000022876446   -0.1500
12     C12     1.1151   -2.3598    0.0181 C.2      1 ZINC000022876446   -0.1300
13     C13    -0.1555   -1.9585    0.0803 C.2      1 ZINC000022876446   -0.2400
14     S14    -1.2209   -3.3235   -0.2285 S.3      1 ZINC000022876446    0.1200
15     N15    -0.9297   -6.4956    0.1349 N.3      1 ZINC000022876446   -0.5300
16     C16    -0.6670   -6.2007    1.5505 C.3      1 ZINC000022876446    0.0500
17     C17    -1.7815   -6.8027    2.4095 C.3      1 ZINC000022876446    0.0600
18     N18    -1.8446   -8.2528    2.1795 N.3      1 ZINC000022876446   -0.5300
19     C19    -2.8536   -8.8795    3.0438 C.3      1 ZINC000022876446    0.0900
20     C20    -2.7230  -10.3787    2.9631 C.ar     1 ZINC000022876446   -0.0700
21     C21    -3.4310  -11.0837    2.0078 C.ar     1 ZINC000022876446   -0.1100
22     C22    -3.3112  -12.4588    1.9337 C.ar     1 ZINC000022876446   -0.1200
23     C23    -2.4830  -13.1289    2.8146 C.ar     1 ZINC000022876446   -0.1200
24     C24    -1.7743  -12.4238    3.7694 C.ar     1 ZINC000022876446   -0.1200
25     C25    -1.8909  -11.0482    3.8407 C.ar     1 ZINC000022876446   -0.1000
26     C26    -2.1072   -8.5477    0.7640 C.3      1 ZINC000022876446    0.0600
27     C27    -0.9927   -7.9457   -0.0951 C.3      1 ZINC000022876446    0.0700
28     S28    -1.8479   -5.6299   -2.9390 S.3      1 ZINC000022876446    0.1300
29     C29    -1.3640   -6.2040   -4.5410 C.2      1 ZINC000022876446    0.2200
30     N30    -1.7399   -6.3476   -5.7935 N.2      1 ZINC000022876446   -0.5300
31     H31    -0.4379   -6.3915   -8.5330 H        1 ZINC000022876446    0.0800
32     H32    -0.1725   -8.1102   -8.1536 H        1 ZINC000022876446    0.0800
33     H33    -1.8288   -7.4648   -8.2465 H        1 ZINC000022876446    0.0800
34     H34     2.2652   -4.1603   -0.3367 H        1 ZINC000022876446    0.1300
35     H35     1.9452   -1.6863    0.1724 H        1 ZINC000022876446    0.1300
36     H36    -0.4803   -0.9491    0.2853 H        1 ZINC000022876446    0.1600
37     H37     0.2902   -6.6340    1.8407 H        1 ZINC000022876446    0.0400
38     H38    -0.6374   -5.1211    1.6976 H        1 ZINC000022876446    0.0800
39     H39    -1.5736   -6.6102    3.4620 H        1 ZINC000022876446    0.0700
40     H40    -2.7349   -6.3497    2.1380 H        1 ZINC000022876446    0.0400
41     H41    -2.7011   -8.5565    4.0736 H        1 ZINC000022876446    0.0800
42     H42    -3.8493   -8.5833    2.7138 H        1 ZINC000022876446    0.0400
43     H43    -4.0780  -10.5602    1.3195 H        1 ZINC000022876446    0.1200
44     H44    -3.8649  -13.0097    1.1878 H        1 ZINC000022876446    0.1200
45     H45    -2.3900  -14.2034    2.7572 H        1 ZINC000022876446    0.1200
46     H46    -1.1276  -12.9474    4.4578 H        1 ZINC000022876446    0.1200
47     H47    -1.3372  -10.4974    4.5865 H        1 ZINC000022876446    0.1200
48     H48    -2.1368   -9.6273    0.6169 H        1 ZINC000022876446    0.0800
49     H49    -3.0644   -8.1144    0.4738 H        1 ZINC000022876446    0.0400
50     H50    -1.2006   -8.1382   -1.1476 H        1 ZINC000022876446    0.0900
51     H51    -0.0393   -8.3987    0.1764 H        1 ZINC000022876446    0.0400
@<TRIPOS>BOND
1     1     2     1
2     1     31    1
3     1     32    1
4     1     33    1
5     2     30    1
6     2     3     2
7     3     4     1
8     4     29    1
9     4     5     1
10    5     6     1
11    5     7     2
12    7     8     1
13    7     28    1
14    8     9     1
15    8     10    1
16    8     15    1
17    10    14    1
18    10    11    2
19    11    12    1
20    11    34    1
21    12    13    2
22    12    35    1
23    13    14    1
24    13    36    1
25    15    27    1
26    15    16    1
27    16    17    1
28    16    37    1
29    16    38    1
30    17    18    1
31    17    39    1
32    17    40    1
33    18    19    1
34    18    26    1
35    19    20    1
36    19    41    1
37    19    42    1
38    20    25    ar
39    20    21    ar
40    21    22    ar
41    21    43    1
42    22    23    ar
43    22    44    1
44    23    24    ar
45    23    45    1
46    24    25    ar
47    24    46    1
48    25    47    1
49    26    27    1
50    26    48    1
51    26    49    1
52    27    50    1
53    27    51    1
54    28    29    1
55    29    30    2
@<TRIPOS>SUBSTRUCTURE
1   ZINC000022876446 1     RESIDUE    1   A     ZIN   1

@<TRIPOS>MOLECULE
ZINC000022876446
52    56    1     0     0
SMALL
USER_CHARGES
@<TRIPOS>ATOM
1      C1     -0.8052   -7.2395   -7.9569 C.3      1 ZINC000022876446   -0.0500
2      C2     -0.7577   -6.9084   -6.4875 C.2      1 ZINC000022876446    0.2200
3      N3      0.2587   -7.1244   -5.6963 N.2      1 ZINC000022876446   -0.3000
4      N4     -0.1049   -6.6711   -4.4031 N.pl3    1 ZINC000022876446   -0.3500
5      C5      0.4311   -6.5843   -3.1425 C.2      1 ZINC000022876446    0.4400
6      O6      1.6929   -7.0266   -2.8919 O.3      1 ZINC000022876446   -0.6700
7      C7     -0.3082   -6.0589   -2.1732 C.2      1 ZINC000022876446   -0.4300
8      C8      0.0794   -5.8689   -0.7294 C.3      1 ZINC000022876446    0.3100
9      H9      1.0498   -6.3317   -0.5497 H        1 ZINC000022876446    0.0800
10     C10     0.1605   -4.3961   -0.4207 C.2      1 ZINC000022876446   -0.1600
11     C11     1.2901   -3.7055   -0.2582 C.2      1 ZINC000022876446   -0.1400
12     C12     1.1167   -2.3605    0.0192 C.2      1 ZINC000022876446   -0.1300
13     C13    -0.1537   -1.9587    0.0819 C.2      1 ZINC000022876446   -0.2300
14     S14    -1.2197   -3.3232   -0.2271 S.3      1 ZINC000022876446    0.1200
15     N15    -0.9296   -6.4955    0.1351 N.3      1 ZINC000022876446   -0.5300
16     C16    -0.6654   -6.2025    1.5509 C.3      1 ZINC000022876446    0.0200
17     C17    -1.7691   -6.8215    2.4113 C.3      1 ZINC000022876446    0.0000
18     N18    -1.8046   -8.2735    2.1924 N.4      1 ZINC000022876446   -0.3800
19     H19    -0.9106   -8.6723    2.4370 H        1 ZINC000022876446    0.4200
20     C20    -2.8525   -8.8695    3.0318 C.3      1 ZINC000022876446    0.0500
21     C21    -2.8083  -10.3701    2.9007 C.ar     1 ZINC000022876446   -0.1600
22     C22    -3.5510  -11.0004    1.9198 C.ar     1 ZINC000022876446   -0.0900
23     C23    -3.5104  -12.3769    1.7995 C.ar     1 ZINC000022876446   -0.1100
24     C24    -2.7268  -13.1231    2.6598 C.ar     1 ZINC000022876446   -0.0900
25     C25    -1.9834  -12.4927    3.6400 C.ar     1 ZINC000022876446   -0.1200
26     C26    -2.0206  -11.1159    3.7576 C.ar     1 ZINC000022876446   -0.1000
27     C27    -2.0937   -8.5504    0.7791 C.3      1 ZINC000022876446    0.0000
28     C28    -0.9927   -7.9458   -0.0949 C.3      1 ZINC000022876446    0.0400
29     S29    -1.8484   -5.6277   -2.9383 S.3      1 ZINC000022876446    0.1300
30     C30    -1.3655   -6.2018   -4.5406 C.2      1 ZINC000022876446    0.2200
31     N31    -1.7419   -6.3448   -5.7931 N.2      1 ZINC000022876446   -0.5200
32     H32    -0.4409   -6.3889   -8.5330 H        1 ZINC000022876446    0.0800
33     H33    -0.1767   -8.1079   -8.1542 H        1 ZINC000022876446    0.0800
34     H34    -1.8324   -7.4611   -8.2463 H        1 ZINC000022876446    0.0900
35     H35     2.2660   -4.1613   -0.3367 H        1 ZINC000022876446    0.1400
36     H36     1.9471   -1.6874    0.1734 H        1 ZINC000022876446    0.1400
37     H37    -0.4781   -0.9493    0.2874 H        1 ZINC000022876446    0.1600
38     H38     0.2981   -6.6250    1.8361 H        1 ZINC000022876446    0.0600
39     H39    -0.6487   -5.1232    1.7019 H        1 ZINC000022876446    0.1200
40     H40    -1.5675   -6.6174    3.4629 H        1 ZINC000022876446    0.1300
41     H41    -2.7307   -6.3888    2.1352 H        1 ZINC000022876446    0.1400
42     H42    -2.6868   -8.5907    4.0725 H        1 ZINC000022876446    0.1300
43     H43    -3.8278   -8.5051    2.7090 H        1 ZINC000022876446    0.1400
44     H44    -4.1632  -10.4174    1.2478 H        1 ZINC000022876446    0.1300
45     H45    -4.0912  -12.8694    1.0337 H        1 ZINC000022876446    0.1400
46     H46    -2.6956  -14.1986    2.5662 H        1 ZINC000022876446    0.1300
47     H47    -1.3714  -13.0758    4.3123 H        1 ZINC000022876446    0.1300
48     H48    -1.4398  -10.6234    4.5234 H        1 ZINC000022876446    0.1300
49     H49    -2.1327   -9.6281    0.6207 H        1 ZINC000022876446    0.1300
50     H50    -3.0537   -8.1088    0.5114 H        1 ZINC000022876446    0.1400
51     H51    -1.2148   -8.1383   -1.1445 H        1 ZINC000022876446    0.1300
52     H52    -0.0346   -8.3970    0.1632 H        1 ZINC000022876446    0.0600
@<TRIPOS>BOND
1     1     2     1
2     1     32    1
3     1     33    1
4     1     34    1
5     2     31    1
6     2     3     2
7     3     4     1
8     4     30    1
9     4     5     1
10    5     6     1
11    5     7     2
12    7     8     1
13    7     29    1
14    8     9     1
15    8     10    1
16    8     15    1
17    10    14    1
18    10    11    2
19    11    12    1
20    11    35    1
21    12    13    2
22    12    36    1
23    13    14    1
24    13    37    1
25    15    28    1
26    15    16    1
27    16    17    1
28    16    38    1
29    16    39    1
30    17    18    1
31    17    40    1
32    17    41    1
33    18    19    1
34    18    20    1
35    18    27    1
36    20    21    1
37    20    42    1
38    20    43    1
39    21    26    ar
40    21    22    ar
41    22    23    ar
42    22    44    1
43    23    24    ar
44    23    45    1
45    24    25    ar
46    24    46    1
47    25    26    ar
48    25    47    1
49    26    48    1
50    27    28    1
51    27    49    1
52    27    50    1
53    28    51    1
54    28    52    1
55    29    30    1
56    30    31    2
@<TRIPOS>SUBSTRUCTURE
1   ZINC000022876446 1     RESIDUE    1   A     ZIN   1
@<TRIPOS>MOLECULE
ZINC000013577188
60    65    1     0     0
SMALL
USER_CHARGES
@<TRIPOS>ATOM
1      C1     -0.0184    1.5028    0.0103 C.3      1 ZINC000013577188   -0.1200
2      C2      0.0021   -0.0041    0.0020 C.ar     1 ZINC000013577188   -0.1000
3      C3      0.0056   -0.6850   -1.2126 C.ar     1 ZINC000013577188   -0.0900
4      C4      0.0251   -2.0459   -1.2550 C.ar     1 ZINC000013577188   -0.1000
5      C5      0.0426   -2.7812   -0.0575 C.ar     1 ZINC000013577188    0.1700
6      N6      0.0696   -4.1153   -0.0661 N.ar     1 ZINC000013577188   -0.5200
7      C7      0.0848   -4.8270    1.0534 C.ar     1 ZINC000013577188    0.3900
8      C8      0.0649   -4.1917    2.2994 C.ar     1 ZINC000013577188   -0.1600
9      C9      0.0449   -2.8277    2.3728 C.ar     1 ZINC000013577188   -0.0300
10     C10     0.0347   -2.0858    1.1764 C.ar     1 ZINC000013577188   -0.1300
11     C11     0.0225   -0.6832    1.1830 C.ar     1 ZINC000013577188   -0.0900
12     C12     0.0572   -4.9678    3.5921 C.3      1 ZINC000013577188   -0.0500
13     C13     0.4912   -6.4117    3.3245 C.3      1 ZINC000013577188   -0.1000
14     C14     0.1807   -7.2596    4.5251 C.2      1 ZINC000013577188    0.5300
15     O15    -0.9674   -7.3441    4.9051 O.2      1 ZINC000013577188   -0.4700
16     N16     1.1365   -7.9257    5.1882 N.am     1 ZINC000013577188   -0.6600
17     C17     2.4245   -7.8750    4.8164 C.2      1 ZINC000013577188    0.7100
18     O18     3.2500   -8.4969    5.4549 O.2      1 ZINC000013577188   -0.5100
19     N19     2.8238   -7.1552    3.7571 N.am     1 ZINC000013577188   -0.5600
20     C20     4.2446   -7.1433    3.4003 C.3      1 ZINC000013577188    0.1500
21     C21     4.5299   -8.2658    2.4362 C.ar     1 ZINC000013577188   -0.1200
22     C22     4.8921   -9.5116    2.9135 C.ar     1 ZINC000013577188   -0.0900
23     C23     5.1538  -10.5413    2.0291 C.ar     1 ZINC000013577188   -0.1300
24     C24     5.0526  -10.3254    0.6674 C.ar     1 ZINC000013577188   -0.1100
25     C25     4.6895   -9.0799    0.1902 C.ar     1 ZINC000013577188   -0.1200
26     C26     4.4237   -8.0514    1.0747 C.ar     1 ZINC000013577188   -0.0900
27     C27     1.9606   -6.4467    3.0153 C.2      1 ZINC000013577188    0.5200
28     O28     2.3780   -5.8166    2.0675 O.2      1 ZINC000013577188   -0.4300
29     C29    -0.2997   -6.9269    2.1168 C.3      1 ZINC000013577188    0.1200
30     H30    -1.3646   -6.7645    2.2831 H        1 ZINC000013577188    0.0900
31     C31    -0.0324   -8.4241    1.9400 C.3      1 ZINC000013577188   -0.1200
32     C32    -0.7990   -8.9315    0.7153 C.3      1 ZINC000013577188   -0.1200
33     C33    -0.3687   -8.1284   -0.5153 C.3      1 ZINC000013577188   -0.1200
34     C34    -0.6284   -6.6411   -0.2650 C.3      1 ZINC000013577188    0.0700
35     N35     0.1249   -6.2051    0.9188 N.3      1 ZINC000013577188   -0.4600
36     H36     1.0042    1.8801    0.0026 H        1 ZINC000013577188    0.0700
37     H37    -0.5455    1.8639   -0.8728 H        1 ZINC000013577188    0.0700
38     H38    -0.5286    1.8543    0.9071 H        1 ZINC000013577188    0.0700
39     H39    -0.0078   -0.1248   -2.1358 H        1 ZINC000013577188    0.1300
40     H40     0.0266   -2.5584   -2.2056 H        1 ZINC000013577188    0.1300
41     H41     0.0366   -2.3281    3.3303 H        1 ZINC000013577188    0.1400
42     H42     0.0252   -0.1446    2.1192 H        1 ZINC000013577188    0.1300
43     H43     0.7481   -4.5057    4.2972 H        1 ZINC000013577188    0.0900
44     H44    -0.9483   -4.9628    4.0127 H        1 ZINC000013577188    0.1100
45     H45     0.8897   -8.4598    5.9594 H        1 ZINC000013577188    0.4400
46     H46     4.4939   -6.1907    2.9328 H        1 ZINC000013577188    0.1100
47     H47     4.8462   -7.2751    4.2996 H        1 ZINC000013577188    0.1100
48     H48     4.9712   -9.6802    3.9773 H        1 ZINC000013577188    0.1300
49     H49     5.4375  -11.5144    2.4020 H        1 ZINC000013577188    0.1200
50     H50     5.2577  -11.1297   -0.0235 H        1 ZINC000013577188    0.1200
51     H51     4.6108   -8.9112   -0.8736 H        1 ZINC000013577188    0.1200
52     H52     4.1399   -7.0783    0.7018 H        1 ZINC000013577188    0.1300
53     H53     1.0353   -8.5888    1.7952 H        1 ZINC000013577188    0.0800
54     H54    -0.3674   -8.9611    2.8275 H        1 ZINC000013577188    0.0800
55     H55    -0.5763   -9.9868    0.5577 H        1 ZINC000013577188    0.0700
56     H56    -1.8694   -8.8044    0.8773 H        1 ZINC000013577188    0.0700
57     H57     0.6939   -8.2863   -0.6995 H        1 ZINC000013577188    0.0800
58     H58    -0.9416   -8.4568   -1.3825 H        1 ZINC000013577188    0.0800
59     H59    -0.3069   -6.0650   -1.1327 H        1 ZINC000013577188    0.1100
60     H60    -1.6934   -6.4813   -0.0971 H        1 ZINC000013577188    0.0500
@<TRIPOS>BOND
1     1     2     1
2     1     36    1
3     1     37    1
4     1     38    1
5     2     11    ar
6     2     3     ar
7     3     4     ar
8     3     39    1
9     4     5     ar
10    4     40    1
11    5     10    ar
12    5     6     ar
13    6     7     ar
14    7     35    1
15    7     8     ar
16    8     9     ar
17    8     12    1
18    9     10    ar
19    9     41    1
20    10    11    ar
21    11    42    1
22    12    13    1
23    12    43    1
24    12    44    1
25    13    27    1
26    13    14    1
27    13    29    1
28    14    15    2
29    14    16    am
30    16    17    am
31    16    45    1
32    17    18    2
33    17    19    am
34    19    20    1
35    19    27    am
36    20    21    1
37    20    46    1
38    20    47    1
39    21    26    ar
40    21    22    ar
41    22    23    ar
42    22    48    1
43    23    24    ar
44    23    49    1
45    24    25    ar
46    24    50    1
47    25    26    ar
48    25    51    1
49    26    52    1
50    27    28    2
51    29    30    1
52    29    35    1
53    29    31    1
54    31    32    1
55    31    53    1
56    31    54    1
57    32    33    1
58    32    55    1
59    32    56    1
60    33    34    1
61    33    57    1
62    33    58    1
63    34    35    1
64    34    59    1
65    34    60    1
@<TRIPOS>SUBSTRUCTURE
1   ZINC000013577188 1     RESIDUE    1   A     ZIN   1

@<TRIPOS>MOLECULE
ZINC000013577188
59    64    1     0     0
SMALL
USER_CHARGES
@<TRIPOS>ATOM
1      C1     -0.0184    1.5028    0.0103 C.3      1 ZINC000013577188   -0.1100
2      C2      0.0021   -0.0041    0.0020 C.ar     1 ZINC000013577188   -0.1100
3      C3      0.0056   -0.6850   -1.2126 C.ar     1 ZINC000013577188   -0.1000
4      C4      0.0251   -2.0459   -1.2550 C.ar     1 ZINC000013577188   -0.1000
5      C5      0.0426   -2.7812   -0.0575 C.ar     1 ZINC000013577188    0.1700
6      N6      0.0696   -4.1153   -0.0661 N.ar     1 ZINC000013577188   -0.5300
7      C7      0.0848   -4.8270    1.0534 C.ar     1 ZINC000013577188    0.4000
8      C8      0.0649   -4.1917    2.2994 C.ar     1 ZINC000013577188   -0.1400
9      C9      0.0449   -2.8277    2.3728 C.ar     1 ZINC000013577188   -0.0400
10     C10     0.0347   -2.0858    1.1764 C.ar     1 ZINC000013577188   -0.1300
11     C11     0.0225   -0.6832    1.1830 C.ar     1 ZINC000013577188   -0.0800
12     C12     0.0572   -4.9678    3.5921 C.3      1 ZINC000013577188   -0.0500
13     C13     0.4912   -6.4117    3.3245 C.3      1 ZINC000013577188   -0.1400
14     C14     0.1807   -7.2596    4.5251 C.2      1 ZINC000013577188    0.5100
15     O15    -0.9674   -7.3441    4.9051 O.2      1 ZINC000013577188   -0.5600
16     N16     1.1365   -7.9257    5.1882 N.pl3    1 ZINC000013577188   -0.7100
17     C17     2.4245   -7.8750    4.8164 C.2      1 ZINC000013577188    0.6700
18     O18     3.2500   -8.4969    5.4549 O.2      1 ZINC000013577188   -0.5800
19     N19     2.8238   -7.1552    3.7571 N.am     1 ZINC000013577188   -0.5800
20     C20     4.2446   -7.1433    3.4003 C.3      1 ZINC000013577188    0.1500
21     C21     4.5299   -8.2658    2.4362 C.ar     1 ZINC000013577188   -0.1000
22     C22     4.8921   -9.5116    2.9135 C.ar     1 ZINC000013577188   -0.0900
23     C23     5.1538  -10.5413    2.0291 C.ar     1 ZINC000013577188   -0.1300
24     C24     5.0526  -10.3254    0.6674 C.ar     1 ZINC000013577188   -0.1200
25     C25     4.6895   -9.0799    0.1902 C.ar     1 ZINC000013577188   -0.1300
26     C26     4.4237   -8.0514    1.0747 C.ar     1 ZINC000013577188   -0.0900
27     C27     1.9606   -6.4467    3.0153 C.2      1 ZINC000013577188    0.5400
28     O28     2.3780   -5.8166    2.0675 O.2      1 ZINC000013577188   -0.5000
29     C29    -0.2997   -6.9269    2.1168 C.3      1 ZINC000013577188    0.1300
30     H30    -1.3646   -6.7645    2.2831 H        1 ZINC000013577188    0.0700
31     C31    -0.0324   -8.4241    1.9400 C.3      1 ZINC000013577188   -0.1200
32     C32    -0.7990   -8.9315    0.7153 C.3      1 ZINC000013577188   -0.1200
33     C33    -0.3687   -8.1284   -0.5153 C.3      1 ZINC000013577188   -0.1200
34     C34    -0.6284   -6.6411   -0.2650 C.3      1 ZINC000013577188    0.0700
35     N35     0.1249   -6.2051    0.9188 N.3      1 ZINC000013577188   -0.4600
36     H36     1.0042    1.8801    0.0026 H        1 ZINC000013577188    0.0700
37     H37    -0.5455    1.8639   -0.8728 H        1 ZINC000013577188    0.0600
38     H38    -0.5286    1.8543    0.9071 H        1 ZINC000013577188    0.0600
39     H39    -0.0078   -0.1248   -2.1358 H        1 ZINC000013577188    0.1200
40     H40     0.0266   -2.5584   -2.2056 H        1 ZINC000013577188    0.1300
41     H41     0.0366   -2.3281    3.3303 H        1 ZINC000013577188    0.1400
42     H42     0.0252   -0.1446    2.1192 H        1 ZINC000013577188    0.1200
43     H43     0.7481   -4.5057    4.2972 H        1 ZINC000013577188    0.0800
44     H44    -0.9483   -4.9628    4.0127 H        1 ZINC000013577188    0.1000
45     H45     4.4939   -6.1907    2.9328 H        1 ZINC000013577188    0.0900
46     H46     4.8462   -7.2751    4.2996 H        1 ZINC000013577188    0.1000
47     H47     4.9712   -9.6802    3.9773 H        1 ZINC000013577188    0.1300
48     H48     5.4375  -11.5144    2.4020 H        1 ZINC000013577188    0.1200
49     H49     5.2577  -11.1297   -0.0235 H        1 ZINC000013577188    0.1100
50     H50     4.6108   -8.9112   -0.8736 H        1 ZINC000013577188    0.1200
51     H51     4.1399   -7.0783    0.7018 H        1 ZINC000013577188    0.1300
52     H52     1.0353   -8.5888    1.7952 H        1 ZINC000013577188    0.0700
53     H53    -0.3674   -8.9611    2.8275 H        1 ZINC000013577188    0.0800
54     H54    -0.5763   -9.9868    0.5577 H        1 ZINC000013577188    0.0700
55     H55    -1.8694   -8.8044    0.8773 H        1 ZINC000013577188    0.0600
56     H56     0.6939   -8.2863   -0.6995 H        1 ZINC000013577188    0.0700
57     H57    -0.9416   -8.4568   -1.3825 H        1 ZINC000013577188    0.0700
58     H58    -0.3069   -6.0650   -1.1327 H        1 ZINC000013577188    0.1000
59     H59    -1.6934   -6.4813   -0.0971 H        1 ZINC000013577188    0.0400
@<TRIPOS>BOND
1     1     2     1
2     1     36    1
3     1     37    1
4     1     38    1
5     2     11    ar
6     2     3     ar
7     3     4     ar
8     3     39    1
9     4     5     ar
10    4     40    1
11    5     10    ar
12    5     6     ar
13    6     7     ar
14    7     35    1
15    7     8     ar
16    8     9     ar
17    8     12    1
18    9     10    ar
19    9     41    1
20    10    11    ar
21    11    42    1
22    12    13    1
23    12    43    1
24    12    44    1
25    13    27    1
26    13    14    1
27    13    29    1
28    14    15    2
29    14    16    1
30    16    17    1
31    17    18    2
32    17    19    am
33    19    20    1
34    19    27    am
35    20    21    1
36    20    45    1
37    20    46    1
38    21    26    ar
39    21    22    ar
40    22    23    ar
41    22    47    1
42    23    24    ar
43    23    48    1
44    24    25    ar
45    24    49    1
46    25    26    ar
47    25    50    1
48    26    51    1
49    27    28    2
50    29    30    1
51    29    35    1
52    29    31    1
53    31    32    1
54    31    52    1
55    31    53    1
56    32    33    1
57    32    54    1
58    32    55    1
59    33    34    1
60    33    56    1
61    33    57    1
62    34    35    1
63    34    58    1
64    34    59    1
@<TRIPOS>SUBSTRUCTURE
1   ZINC000013577188 1     RESIDUE    1   A     ZIN   1
@<TRIPOS>MOLECULE
ZINC000059139227
  31   32    0    0    0
SMALL
USER_CHARGES
NO_NAME
@<TRIPOS>ATOM
    1 C1       -0.0045     1.3734     0.8312 C.3    1 <0>       0.0500
    2 N2       -0.0624    -0.0896     0.8798 N.am   1 <0>      -0.5200
    3 C3       -1.1551    -0.7217     0.4041 C.2    1 <0>       0.5600
    4 O4       -2.0869    -0.0939    -0.0620 O.2    1 <0>      -0.4600
    5 C5       -1.1886    -2.1966     0.4646 C.2    1 <0>      -0.2800
    6 C6       -2.2730    -2.9135    -0.0032 C.2    1 <0>       0.1400
    7 C7       -2.1913    -4.3686    -0.1218 C.ar   1 <0>      -0.1300
    8 C8       -1.0836    -4.9657    -0.7414 C.ar   1 <0>       0.0300
    9 C9       -1.0146    -6.3369    -0.8484 C.ar   1 <0>      -0.1100
   10 Br10      0.4795    -7.1410    -1.6833 Br     1 <0>      -0.0200
   11 C11      -2.0351    -7.1315    -0.3466 C.ar   1 <0>      -0.0100
   12 C12      -3.1331    -6.5587     0.2661 C.ar   1 <0>      -0.1400
   13 I13      -4.6643    -7.7754     1.0170 I      1 <0>       0.0000
   14 C14      -3.2208    -5.1806     0.3900 C.ar   1 <0>       0.2000
   15 O15      -4.2981    -4.6174     0.9911 O.3    1 <0>      -0.4800
   16 C16      -0.0114    -2.8711     1.0469 C.2    1 <0>       0.5500
   17 O17       0.0361    -4.0837     1.1311 O.2    1 <0>      -0.4500
   18 N18       1.0103    -2.1056     1.4826 N.am   1 <0>      -0.5100
   19 C19       2.1902    -2.7506     2.0641 C.3    1 <0>       0.0600
   20 C20       0.9738    -0.7690     1.3906 C.2    1 <0>       0.5200
   21 S21       2.3176     0.1194     1.9703 S.2    1 <0>      -0.5000
   22 H22       0.9431     1.7136     1.2490 H      1 <0>       0.1400
   23 H23      -0.0856     1.7062    -0.2036 H      1 <0>       0.0900
   24 H24      -0.8278     1.7891     1.4121 H      1 <0>       0.0900
   25 H25      -3.1811    -2.3992    -0.2813 H      1 <0>       0.1700
   26 H26      -0.2867    -4.3515    -1.1340 H      1 <0>       0.1400
   27 H27      -1.9710    -8.2059    -0.4358 H      1 <0>       0.1500
   28 H28      -4.1982    -4.4980     1.9455 H      1 <0>       0.4000
   29 H29       2.9155    -2.9583     1.2774 H      1 <0>       0.0900
   30 H30       2.6378    -2.0887     2.8055 H      1 <0>       0.1200
   31 H31       1.8951    -3.6848     2.5420 H      1 <0>       0.1000
@<TRIPOS>BOND
   1    1    2 1
   2    1   22 1
   3    1   23 1
   4    1   24 1
   5    2   20 am
   6    2    3 am
   7    3    4 2
   8    3    5 1
   9    5    6 2
  10    5   16 1
  11    6    7 1
  12    6   25 1
  13    7   14 ar
  14    7    8 ar
  15    8    9 ar
  16    8   26 1
  17    9   10 1
  18    9   11 ar
  19   11   12 ar
  20   11   27 1
  21   12   13 1
  22   12   14 ar
  23   14   15 1
  24   15   28 1
  25   16   17 2
  26   16   18 am
  27   18   19 1
  28   18   20 am
  29   19   29 1
  30   19   30 1
  31   19   31 1
  32   20   21 2

@<TRIPOS>MOLECULE
ZINC000059139227
  30   31    0    0    0
SMALL
USER_CHARGES
NO_NAME
@<TRIPOS>ATOM
    1 C1       -0.0045     1.3734     0.8312 C.3    1 <0>       0.0500
    2 N2       -0.0624    -0.0896     0.8797 N.am   1 <0>      -0.5200
    3 C3       -1.1551    -0.7217     0.4041 C.2    1 <0>       0.5600
    4 O4       -2.0869    -0.0939    -0.0620 O.2    1 <0>      -0.4800
    5 C5       -1.1886    -2.1966     0.4646 C.2    1 <0>      -0.3600
    6 C6       -2.2730    -2.9135    -0.0032 C.2    1 <0>       0.2300
    7 C7       -2.1913    -4.3686    -0.1218 C.ar   1 <0>      -0.2800
    8 C8       -1.0836    -4.9657    -0.7414 C.ar   1 <0>       0.0700
    9 C9       -1.0146    -6.3369    -0.8484 C.ar   1 <0>      -0.2100
   10 Br10      0.4795    -7.1410    -1.6833 Br     1 <0>      -0.0900
   11 C11      -2.0351    -7.1315    -0.3466 C.ar   1 <0>       0.0200
   12 C12      -3.1331    -6.5587     0.2661 C.ar   1 <0>      -0.2200
   13 I13      -4.6643    -7.7754     1.0170 I      1 <0>      -0.0600
   14 C14      -3.2208    -5.1806     0.3900 C.ar   1 <0>       0.3400
   15 O15      -4.2981    -4.6174     0.9911 O.3    1 <0>      -0.6500
   16 C16      -0.0114    -2.8711     1.0469 C.2    1 <0>       0.5500
   17 O17       0.0361    -4.0837     1.1311 O.2    1 <0>      -0.4500
   18 N18       1.0103    -2.1056     1.4826 N.am   1 <0>      -0.5100
   19 C19       2.1902    -2.7506     2.0641 C.3    1 <0>       0.0600
   20 C20       0.9738    -0.7690     1.3906 C.2    1 <0>       0.5500
   21 S21       2.3176     0.1194     1.9702 S.2    1 <0>      -0.5700
   22 H22       0.9431     1.7136     1.2490 H      1 <0>       0.1300
   23 H23      -0.0856     1.7062    -0.2036 H      1 <0>       0.0800
   24 H24      -0.8278     1.7891     1.4121 H      1 <0>       0.0800
   25 H25      -3.1811    -2.3992    -0.2813 H      1 <0>       0.1500
   26 H26      -0.2867    -4.3515    -1.1340 H      1 <0>       0.1100
   27 H27      -1.9710    -8.2059    -0.4358 H      1 <0>       0.1200
   28 H28       2.9155    -2.9583     1.2774 H      1 <0>       0.0800
   29 H29       2.6378    -2.0887     2.8055 H      1 <0>       0.1200
   30 H30       1.8951    -3.6848     2.5420 H      1 <0>       0.1000
@<TRIPOS>BOND
   1    1    2 1
   2    1   22 1
   3    1   23 1
   4    1   24 1
   5    2   20 am
   6    2    3 am
   7    3    4 2
   8    3    5 1
   9    5    6 2
  10    5   16 1
  11    6    7 1
  12    6   25 1
  13    7   14 ar
  14    7    8 ar
  15    8    9 ar
  16    8   26 1
  17    9   10 1
  18    9   11 ar
  19   11   12 ar
  20   11   27 1
  21   12   13 1
  22   12   14 ar
  23   14   15 1
  24   16   17 2
  25   16   18 am
  26   18   19 1
  27   18   20 am
  28   19   28 1
  29   19   29 1
  30   19   30 1
  31   20   21 2
@<TRIPOS>MOLECULE
ZINC000064580877
46    48    1     0     0
SMALL
USER_CHARGES
@<TRIPOS>ATOM
1      C1     -0.0336    1.5462   -0.0247 C.3      1 ZINC000064580877   -0.1500
2      C2     -0.0024    0.0166   -0.0080 C.3      1 ZINC000064580877   -0.1100
3      C3     -1.4275   -0.5210    0.1369 C.3      1 ZINC000064580877   -0.1300
4      S4      0.7182   -0.5905   -1.5581 S.3      1 ZINC000064580877   -0.0500
5      C5      2.4166   -0.1468   -1.4062 C.ar     1 ZINC000064580877   -0.1300
6      C6      2.8868    0.3958   -0.2211 C.ar     1 ZINC000064580877   -0.0700
7      C7      4.2246    0.7442   -0.1033 C.ar     1 ZINC000064580877    0.0000
8      C8      5.0945    0.5482   -1.1766 C.ar     1 ZINC000064580877    0.1500
9      C9      4.6226    0.0057   -2.3634 C.ar     1 ZINC000064580877   -0.2500
10     C10     3.2885   -0.3477   -2.4782 C.ar     1 ZINC000064580877    0.3200
11     N11     2.8102   -0.8963   -3.6764 N.pl3    1 ZINC000064580877   -1.0600
12     S12     3.8402   -1.1214   -4.9534 S.o2     1 ZINC000064580877    2.6000
13     O13     4.2320    0.1742   -5.3861 O.2      1 ZINC000064580877   -1.0300
14     O14     4.7676   -2.1194   -4.5498 O.2      1 ZINC000064580877   -1.0100
15     C15     2.8971   -1.8207   -6.2673 C.ar     1 ZINC000064580877   -0.6000
16     C16     2.7128   -1.1117   -7.4391 C.ar     1 ZINC000064580877   -0.0300
17     C17     1.9728   -1.6604   -8.4702 C.ar     1 ZINC000064580877   -0.1300
18     C18     1.4174   -2.9182   -8.3296 C.ar     1 ZINC000064580877   -0.0800
19     C19     1.6013   -3.6281   -7.1577 C.ar     1 ZINC000064580877   -0.1200
20     C20     2.3458   -3.0819   -6.1281 C.ar     1 ZINC000064580877    0.0000
21     Br21    2.5976   -4.0524   -4.5248 Br       1 ZINC000064580877   -0.0100
22     N22     6.3521    0.9871   -0.7612 N.am     1 ZINC000064580877   -0.5400
23     C23     7.5753    0.9702   -1.5672 C.3      1 ZINC000064580877    0.1000
24     C24     6.2499    1.4291    0.5062 C.2      1 ZINC000064580877    0.6800
25     O25     7.1667    1.8811    1.1668 O.2      1 ZINC000064580877   -0.5800
26     N26     4.9797    1.2962    0.9320 N.am     1 ZINC000064580877   -0.5400
27     C27     4.4760    1.6682    2.2564 C.3      1 ZINC000064580877    0.1100
28     H28     0.9863    1.9303   -0.0409 H        1 ZINC000064580877    0.0600
29     H29    -0.5651    1.8891   -0.9125 H        1 ZINC000064580877    0.0700
30     H30    -0.5444    1.9090    0.8672 H        1 ZINC000064580877    0.0500
31     H31     0.6021   -0.3253    0.8321 H        1 ZINC000064580877    0.0800
32     H32    -2.0320   -0.1791   -0.7032 H        1 ZINC000064580877    0.0600
33     H33    -1.4053   -1.6107    0.1489 H        1 ZINC000064580877    0.0600
34     H34    -1.8605   -0.1562    1.0683 H        1 ZINC000064580877    0.0600
35     H35     2.2131    0.5477    0.6093 H        1 ZINC000064580877    0.1200
36     H36     5.2957   -0.1457   -3.1943 H        1 ZINC000064580877    0.1100
37     H37     3.1466   -0.1288   -7.5495 H        1 ZINC000064580877    0.1400
38     H38     1.8284   -1.1058   -9.3856 H        1 ZINC000064580877    0.1300
39     H39     0.8395   -3.3464   -9.1352 H        1 ZINC000064580877    0.1300
40     H40     1.1670   -4.6108   -7.0478 H        1 ZINC000064580877    0.1300
41     H41     7.6637    1.9095   -2.1132 H        1 ZINC000064580877    0.0600
42     H42     8.4392    0.8469   -0.9141 H        1 ZINC000064580877    0.0800
43     H43     7.5332    0.1416   -2.2742 H        1 ZINC000064580877    0.0800
44     H44     5.2920    2.0736    2.8547 H        1 ZINC000064580877    0.0900
45     H45     3.6949    2.4209    2.1498 H        1 ZINC000064580877    0.0700
46     H46     4.0665    0.7870    2.7501 H        1 ZINC000064580877    0.0700
@<TRIPOS>BOND
1     1     2     1
2     1     28    1
3     1     29    1
4     1     30    1
5     2     3     1
6     2     4     1
7     2     31    1
8     3     32    1
9     3     33    1
10    3     34    1
11    4     5     1
12    5     10    ar
13    5     6     ar
14    6     7     ar
15    6     35    1
16    7     26    1
17    7     8     ar
18    8     9     ar
19    8     22    1
20    9     10    ar
21    9     36    1
22    10    11    1
23    11    12    1
24    12    13    2
25    12    14    2
26    12    15    1
27    15    20    ar
28    15    16    ar
29    16    17    ar
30    16    37    1
31    17    18    ar
32    17    38    1
33    18    19    ar
34    18    39    1
35    19    20    ar
36    19    40    1
37    20    21    1
38    22    23    1
39    22    24    am
40    23    41    1
41    23    42    1
42    23    43    1
43    24    25    2
44    24    26    am
45    26    27    1
46    27    44    1
47    27    45    1
48    27    46    1
@<TRIPOS>SUBSTRUCTURE
1   ZINC000064580877 1     RESIDUE    1   A     ZIN   1

@<TRIPOS>MOLECULE
ZINC000064580877
47    49    1     0     0
SMALL
USER_CHARGES
@<TRIPOS>ATOM
1      C1      0.2986    0.9440   -0.2165 C.3      1 ZINC000064580877   -0.1600
2      C2      0.1328   -0.5726   -0.1006 C.3      1 ZINC000064580877   -0.0800
3      C3      0.9042   -1.0781    1.1201 C.3      1 ZINC000064580877   -0.1400
4      S4     -1.6259   -0.9760    0.0859 S.3      1 ZINC000064580877   -0.0900
5      C5     -2.2864   -0.6155   -1.5074 C.ar     1 ZINC000064580877   -0.0900
6      C6     -1.4379   -0.2645   -2.5451 C.ar     1 ZINC000064580877   -0.0900
7      C7     -1.9598    0.0185   -3.7989 C.ar     1 ZINC000064580877    0.1000
8      C8     -3.3368   -0.0503   -4.0142 C.ar     1 ZINC000064580877    0.1300
9      C9     -4.1860   -0.4009   -2.9742 C.ar     1 ZINC000064580877   -0.1400
10     C10    -3.6638   -0.6895   -1.7244 C.ar     1 ZINC000064580877    0.2000
11     N11    -4.5203   -1.0444   -0.6727 N.am     1 ZINC000064580877   -1.0400
12     S12    -5.8767   -1.9443   -0.9771 S.o2     1 ZINC000064580877    2.6800
13     O13    -5.4734   -2.9987   -1.8401 O.2      1 ZINC000064580877   -0.9300
14     O14    -6.5023   -2.1647    0.2796 O.2      1 ZINC000064580877   -0.9200
15     C15    -6.9763   -0.9312   -1.9094 C.ar     1 ZINC000064580877   -0.6600
16     C16    -7.3236   -1.2917   -3.1976 C.ar     1 ZINC000064580877   -0.0200
17     C17    -8.1864   -0.4969   -3.9293 C.ar     1 ZINC000064580877   -0.1200
18     C18    -8.7024    0.6583   -3.3727 C.ar     1 ZINC000064580877   -0.0500
19     C19    -8.3556    1.0197   -2.0842 C.ar     1 ZINC000064580877   -0.1100
20     C20    -7.4966    0.2222   -1.3500 C.ar     1 ZINC000064580877    0.0000
21     Br21   -7.0218    0.7160    0.4125 Br       1 ZINC000064580877   -0.0200
22     N22    -3.5527    0.2822   -5.3519 N.am     1 ZINC000064580877   -0.5400
23     C23    -4.8544    0.3404   -6.0215 C.3      1 ZINC000064580877    0.1000
24     C24    -2.3611    0.5411   -5.9223 C.2      1 ZINC000064580877    0.6800
25     O25    -2.1955    0.8628   -7.0843 O.2      1 ZINC000064580877   -0.5500
26     N26    -1.3804    0.3909   -5.0123 N.am     1 ZINC000064580877   -0.5400
27     C27     0.0512    0.5857   -5.2547 C.3      1 ZINC000064580877    0.1000
28     H28     1.3596    1.1925   -0.2427 H        1 ZINC000064580877    0.0700
29     H29    -0.1790    1.2928   -1.1321 H        1 ZINC000064580877    0.0600
30     H30    -0.1666    1.4271    0.6427 H        1 ZINC000064580877    0.0700
31     H31     0.5218   -1.0504   -0.9997 H        1 ZINC000064580877    0.1000
32     H32     0.5152   -0.6003    2.0193 H        1 ZINC000064580877    0.0700
33     H33     0.7861   -2.1586    1.2027 H        1 ZINC000064580877    0.0700
34     H34     1.9610   -0.8357    1.0081 H        1 ZINC000064580877    0.0800
35     H35    -0.3722   -0.2110   -2.3780 H        1 ZINC000064580877    0.1400
36     H36    -5.2518   -0.4540   -3.1405 H        1 ZINC000064580877    0.1400
37     H37    -4.3183   -0.7627    0.2333 H        1 ZINC000064580877    0.4300
38     H38    -6.9207   -2.1942   -3.6329 H        1 ZINC000064580877    0.1600
39     H39    -8.4571   -0.7785   -4.9362 H        1 ZINC000064580877    0.1500
40     H40    -9.3764    1.2789   -3.9446 H        1 ZINC000064580877    0.1400
41     H41    -8.7586    1.9225   -1.6495 H        1 ZINC000064580877    0.1500
42     H42    -5.2671    1.3448   -5.9270 H        1 ZINC000064580877    0.0700
43     H43    -4.7314    0.0959   -7.0766 H        1 ZINC000064580877    0.0900
44     H44    -5.5331   -0.3764   -5.5592 H        1 ZINC000064580877    0.0800
45     H45     0.2079    0.8736   -6.2943 H        1 ZINC000064580877    0.1000
46     H46     0.4270    1.3715   -4.5995 H        1 ZINC000064580877    0.0800
47     H47     0.5839   -0.3431   -5.0507 H        1 ZINC000064580877    0.0800
@<TRIPOS>BOND
1     1     2     1
2     1     28    1
3     1     29    1
4     1     30    1
5     2     3     1
6     2     4     1
7     2     31    1
8     3     32    1
9     3     33    1
10    3     34    1
11    4     5     1
12    5     10    ar
13    5     6     ar
14    6     7     ar
15    6     35    1
16    7     26    1
17    7     8     ar
18    8     9     ar
19    8     22    1
20    9     10    ar
21    9     36    1
22    10    11    1
23    11    12    am
24    11    37    1
25    12    13    2
26    12    14    2
27    12    15    1
28    15    20    ar
29    15    16    ar
30    16    17    ar
31    16    38    1
32    17    18    ar
33    17    39    1
34    18    19    ar
35    18    40    1
36    19    20    ar
37    19    41    1
38    20    21    1
39    22    23    1
40    22    24    am
41    23    42    1
42    23    43    1
43    23    44    1
44    24    25    2
45    24    26    am
46    26    27    1
47    27    45    1
48    27    46    1
49    27    47    1
@<TRIPOS>SUBSTRUCTURE
1   ZINC000064580877 1     RESIDUE    1   A     ZIN   1
@<TRIPOS>MOLECULE
ZINC000008608219
62    64    1     0     0
SMALL
USER_CHARGES
@<TRIPOS>ATOM
1      C1      2.7810    2.5547   -1.6272 C.3      1 ZINC000008608219   -0.1600
2      C2      1.5181    1.8063   -1.1960 C.3      1 ZINC000008608219   -0.0600
3      C3      1.4669    0.4678   -1.8866 C.ar     1 ZINC000008608219   -0.1300
4      C4      0.7588    0.3238   -3.0633 C.ar     1 ZINC000008608219   -0.1100
5      C5      0.7109   -0.9044   -3.6974 C.ar     1 ZINC000008608219   -0.1900
6      C6      1.3717   -1.9917   -3.1562 C.ar     1 ZINC000008608219   -0.1100
7      C7      2.0821   -1.8545   -1.9797 C.ar     1 ZINC000008608219   -0.1700
8      C8      2.8024   -3.0400   -1.3907 C.3      1 ZINC000008608219   -0.0900
9      C9      2.1367   -0.6212   -1.3430 C.ar     1 ZINC000008608219    0.2600
10     N10     2.8542   -0.4789   -0.1532 N.pl3    1 ZINC000008608219   -1.1200
11     S11     4.5027   -0.6364   -0.1565 S.o2     1 ZINC000008608219    2.6200
12     O12     4.7759   -1.9897   -0.4928 O.2      1 ZINC000008608219   -1.0200
13     O13     5.0096    0.4659   -0.8964 O.2      1 ZINC000008608219   -1.0400
14     C14     5.0511   -0.4158    1.5034 C.2      1 ZINC000008608219   -0.6500
15     C15     5.3971    0.7435    2.0909 C.2      1 ZINC000008608219    0.1300
16     C16     5.3826    2.0987    1.4320 C.3      1 ZINC000008608219   -0.1200
17     N17     5.7633    0.4920    3.3810 N.pl3    1 ZINC000008608219   -0.4400
18     C18     6.2047    1.5085    4.3392 C.3      1 ZINC000008608219    0.0700
19     C19     5.6612   -0.8240    3.6475 C.2      1 ZINC000008608219    0.0400
20     C20     5.9785   -1.4839    4.9647 C.3      1 ZINC000008608219   -0.0800
21     C21     5.2150   -1.4591    2.5214 C.2      1 ZINC000008608219   -0.1300
22     C22     4.9595   -2.9005    2.3606 C.2      1 ZINC000008608219    0.6100
23     O23     3.8589   -3.3544    2.6092 O.2      1 ZINC000008608219   -0.5300
24     N24     5.9453   -3.7166    1.9379 N.am     1 ZINC000008608219   -0.5900
25     C25     7.2817   -3.1840    1.6394 C.3      1 ZINC000008608219    0.1100
26     C26     8.3194   -3.9809    2.4361 C.3      1 ZINC000008608219   -0.1300
27     C27     8.1547   -5.4718    2.1324 C.3      1 ZINC000008608219   -0.0900
28     C28     9.2119   -6.2682    2.8999 C.3      1 ZINC000008608219   -0.1400
29     C29     6.7593   -5.9306    2.5621 C.3      1 ZINC000008608219   -0.1300
30     C30     5.7057   -5.1567    1.7727 C.3      1 ZINC000008608219    0.1100
31     H31     3.6602    1.9711   -1.3542 H        1 ZINC000008608219    0.0900
32     H32     2.7645    2.7033   -2.7069 H        1 ZINC000008608219    0.0400
33     H33     2.8180    3.5228   -1.1278 H        1 ZINC000008608219    0.0300
34     H34     1.5346    1.6577   -0.1163 H        1 ZINC000008608219    0.0800
35     H35     0.6389    2.3899   -1.4691 H        1 ZINC000008608219    0.0400
36     H36     0.2416    1.1711   -3.4887 H        1 ZINC000008608219    0.1000
37     H37     0.1558   -1.0145   -4.6173 H        1 ZINC000008608219    0.1000
38     H38     1.3319   -2.9494   -3.6537 H        1 ZINC000008608219    0.1000
39     H39     3.7797   -3.1425   -1.8626 H        1 ZINC000008608219    0.0700
40     H40     2.9304   -2.8914   -0.3185 H        1 ZINC000008608219    0.0800
41     H41     2.2182   -3.9435   -1.5652 H        1 ZINC000008608219    0.0200
42     H42     4.4066    2.5623    1.5759 H        1 ZINC000008608219    0.0800
43     H43     6.1529    2.7278    1.8780 H        1 ZINC000008608219    0.0600
44     H44     5.5777    1.9863    0.3655 H        1 ZINC000008608219    0.1200
45     H45     5.3416    1.8974    4.8797 H        1 ZINC000008608219    0.0700
46     H46     6.9048    1.0623    5.0455 H        1 ZINC000008608219    0.0800
47     H47     6.6959    2.3220    3.8055 H        1 ZINC000008608219    0.0900
48     H48     5.0826   -1.5058    5.5852 H        1 ZINC000008608219    0.0700
49     H49     6.3224   -2.5028    4.7870 H        1 ZINC000008608219    0.0800
50     H50     6.7599   -0.9203    5.4745 H        1 ZINC000008608219    0.0600
51     H51     7.4848   -3.2832    0.5731 H        1 ZINC000008608219    0.0700
52     H52     7.3288   -2.1334    1.9263 H        1 ZINC000008608219    0.0800
53     H53     9.3214   -3.6602    2.1514 H        1 ZINC000008608219    0.0700
54     H54     8.1707   -3.8082    3.5020 H        1 ZINC000008608219    0.0600
55     H55     8.2788   -5.6404    1.0627 H        1 ZINC000008608219    0.0700
56     H56     9.0883   -6.0994    3.9696 H        1 ZINC000008608219    0.0500
57     H57     9.0948   -7.3301    2.6837 H        1 ZINC000008608219    0.0500
58     H58    10.2058   -5.9424    2.5931 H        1 ZINC000008608219    0.0500
59     H59     6.6510   -6.9975    2.3671 H        1 ZINC000008608219    0.0700
60     H60     6.6254   -5.7395    3.6269 H        1 ZINC000008608219    0.0600
61     H61     4.7125   -5.4083    2.1447 H        1 ZINC000008608219    0.0900
62     H62     5.7784   -5.4144    0.7161 H        1 ZINC000008608219    0.0700
@<TRIPOS>BOND
1     1     2     1
2     1     31    1
3     1     32    1
4     1     33    1
5     2     3     1
6     2     34    1
7     2     35    1
8     3     9     ar
9     3     4     ar
10    4     5     ar
11    4     36    1
12    5     6     ar
13    5     37    1
14    6     7     ar
15    6     38    1
16    7     8     1
17    7     9     ar
18    8     39    1
19    8     40    1
20    8     41    1
21    9     10    1
22    10    11    1
23    11    12    2
24    11    13    2
25    11    14    1
26    14    21    1
27    14    15    2
28    15    16    1
29    15    17    1
30    16    42    1
31    16    43    1
32    16    44    1
33    17    18    1
34    17    19    1
35    18    45    1
36    18    46    1
37    18    47    1
38    19    20    1
39    19    21    2
40    20    48    1
41    20    49    1
42    20    50    1
43    21    22    1
44    22    23    2
45    22    24    am
46    24    30    1
47    24    25    1
48    25    26    1
49    25    51    1
50    25    52    1
51    26    27    1
52    26    53    1
53    26    54    1
54    27    28    1
55    27    29    1
56    27    55    1
57    28    56    1
58    28    57    1
59    28    58    1
60    29    30    1
61    29    59    1
62    29    60    1
63    30    61    1
64    30    62    1
@<TRIPOS>SUBSTRUCTURE
1   ZINC000008608219 1     RESIDUE    1   A     ZIN   1

@<TRIPOS>MOLECULE
ZINC000008608219
63    65    1     0     0
SMALL
USER_CHARGES
@<TRIPOS>ATOM
1      C1      2.0371    3.0338   -1.9895 C.3      1 ZINC000008608219   -0.1600
2      C2      0.8108    2.1653   -1.7017 C.3      1 ZINC000008608219   -0.0800
3      C3      0.9788    0.8231   -2.3660 C.ar     1 ZINC000008608219   -0.0700
4      C4      0.4404    0.5991   -3.6176 C.ar     1 ZINC000008608219   -0.1200
5      C5      0.5937   -0.6326   -4.2278 C.ar     1 ZINC000008608219   -0.1100
6      C6      1.2865   -1.6434   -3.5874 C.ar     1 ZINC000008608219   -0.1200
7      C7      1.8280   -1.4260   -2.3355 C.ar     1 ZINC000008608219   -0.0700
8      C8      2.5834   -2.5281   -1.6385 C.3      1 ZINC000008608219   -0.1100
9      C9      1.6804   -0.1886   -1.7222 C.ar     1 ZINC000008608219    0.1300
10     N10     2.2268    0.0347   -0.4563 N.am     1 ZINC000008608219   -1.0500
11     S11     3.8681   -0.0157   -0.2421 S.o2     1 ZINC000008608219    2.7000
12     O12     4.1019    0.2560    1.1329 O.2      1 ZINC000008608219   -0.9500
13     O13     4.3210   -1.1972   -0.8888 O.2      1 ZINC000008608219   -0.9500
14     C14     4.5531    1.3367   -1.1400 C.2      1 ZINC000008608219   -0.7200
15     C15     4.9751    1.3256   -2.4169 C.2      1 ZINC000008608219    0.1700
16     C16     4.9433    0.1352   -3.3404 C.3      1 ZINC000008608219   -0.1300
17     N17     5.4367    2.5684   -2.7396 N.pl3    1 ZINC000008608219   -0.4300
18     C18     5.9796    2.9465   -4.0467 C.3      1 ZINC000008608219    0.0600
19     C19     5.3219    3.3978   -1.6850 C.2      1 ZINC000008608219    0.0700
20     C20     5.7262    4.8493   -1.6568 C.3      1 ZINC000008608219   -0.0900
21     C21     4.7706    2.7005   -0.6455 C.2      1 ZINC000008608219   -0.1300
22     C22     4.4655    3.2129    0.7009 C.2      1 ZINC000008608219    0.5900
23     O23     3.3768    3.7031    0.9328 O.2      1 ZINC000008608219   -0.5300
24     N24     5.3927    3.1387    1.6763 N.am     1 ZINC000008608219   -0.5900
25     C25     6.7144    2.5548    1.4099 C.3      1 ZINC000008608219    0.1100
26     C26     7.7913    3.5588    1.8329 C.3      1 ZINC000008608219   -0.1300
27     C27     7.5640    3.9600    3.2922 C.3      1 ZINC000008608219   -0.0900
28     C28     8.6581    4.9364    3.7287 C.3      1 ZINC000008608219   -0.1500
29     C29     6.1960    4.6319    3.4311 C.3      1 ZINC000008608219   -0.1300
30     C30     5.1031    3.6456    3.0246 C.3      1 ZINC000008608219    0.1100
31     H31     2.9290    2.5440   -1.5986 H        1 ZINC000008608219    0.0900
32     H32     2.1404    3.1715   -3.0658 H        1 ZINC000008608219    0.0400
33     H33     1.9156    4.0046   -1.5090 H        1 ZINC000008608219    0.0600
34     H34     0.7076    2.0276   -0.6254 H        1 ZINC000008608219    0.0700
35     H35    -0.0811    2.6550   -2.0926 H        1 ZINC000008608219    0.0700
36     H36    -0.1013    1.3865   -4.1206 H        1 ZINC000008608219    0.1200
37     H37     0.1710   -0.8054   -5.2065 H        1 ZINC000008608219    0.1200
38     H38     1.4041   -2.6042   -4.0665 H        1 ZINC000008608219    0.1300
39     H39     3.6052   -2.5634   -2.0162 H        1 ZINC000008608219    0.1100
40     H40     2.5990   -2.3358   -0.5658 H        1 ZINC000008608219    0.0600
41     H41     2.0923   -3.4823   -1.8295 H        1 ZINC000008608219    0.0600
42     H42     1.6448    0.2194    0.2975 H        1 ZINC000008608219    0.4200
43     H43     3.9563    0.0549   -3.7959 H        1 ZINC000008608219    0.0900
44     H44     5.6943    0.2602   -4.1204 H        1 ZINC000008608219    0.0800
45     H45     5.1563   -0.7707   -2.7729 H        1 ZINC000008608219    0.1200
46     H46     5.1731    3.3085   -4.6843 H        1 ZINC000008608219    0.0800
47     H47     6.7221    3.7340   -3.9178 H        1 ZINC000008608219    0.0900
48     H48     6.4477    2.0783   -4.5107 H        1 ZINC000008608219    0.0900
49     H49     4.8825    5.4674   -1.9639 H        1 ZINC000008608219    0.0800
50     H50     6.0281    5.1228   -0.6458 H        1 ZINC000008608219    0.0800
51     H51     6.5603    5.0075   -2.3405 H        1 ZINC000008608219    0.0700
52     H52     6.8288    1.6337    1.9813 H        1 ZINC000008608219    0.0700
53     H53     6.8117    2.3413    0.3454 H        1 ZINC000008608219    0.0800
54     H54     8.7754    3.1014    1.7304 H        1 ZINC000008608219    0.0800
55     H55     7.7330    4.4435    1.1990 H        1 ZINC000008608219    0.0700
56     H56     7.5977    3.0714    3.9226 H        1 ZINC000008608219    0.0700
57     H57     8.6249    5.8248    3.0981 H        1 ZINC000008608219    0.0500
58     H58     8.4964    5.2223    4.7680 H        1 ZINC000008608219    0.0600
59     H59     9.6324    4.4576    3.6310 H        1 ZINC000008608219    0.0600
60     H60     6.0447    4.9383    4.4661 H        1 ZINC000008608219    0.0800
61     H61     6.1527    5.5066    2.7822 H        1 ZINC000008608219    0.0700
62     H62     4.1367    4.1496    3.0271 H        1 ZINC000008608219    0.0900
63     H63     5.0843    2.8115    3.7260 H        1 ZINC000008608219    0.0700
@<TRIPOS>BOND
1     1     2     1
2     1     31    1
3     1     32    1
4     1     33    1
5     2     3     1
6     2     34    1
7     2     35    1
8     3     9     ar
9     3     4     ar
10    4     5     ar
11    4     36    1
12    5     6     ar
13    5     37    1
14    6     7     ar
15    6     38    1
16    7     8     1
17    7     9     ar
18    8     39    1
19    8     40    1
20    8     41    1
21    9     10    1
22    10    11    am
23    10    42    1
24    11    12    2
25    11    13    2
26    11    14    1
27    14    21    1
28    14    15    2
29    15    16    1
30    15    17    1
31    16    43    1
32    16    44    1
33    16    45    1
34    17    18    1
35    17    19    1
36    18    46    1
37    18    47    1
38    18    48    1
39    19    20    1
40    19    21    2
41    20    49    1
42    20    50    1
43    20    51    1
44    21    22    1
45    22    23    2
46    22    24    am
47    24    30    1
48    24    25    1
49    25    26    1
50    25    52    1
51    25    53    1
52    26    27    1
53    26    54    1
54    26    55    1
55    27    28    1
56    27    29    1
57    27    56    1
58    28    57    1
59    28    58    1
60    28    59    1
61    29    30    1
62    29    60    1
63    29    61    1
64    30    62    1
65    30    63    1
@<TRIPOS>SUBSTRUCTURE
1   ZINC000008608219 1     RESIDUE    1   A     ZIN   1
@<TRIPOS>MOLECULE
ZINC000008994420
31    33    1     0     0
SMALL
USER_CHARGES
@<TRIPOS>ATOM
1      O1      0.0021   -0.0041    0.0020 O.2      1 ZINC000008994420   -1.0200
2      S2     -0.0172    1.4168    0.0098 S.o2     1 ZINC000008994420    2.6000
3      O3      1.1617    2.2101    0.0028 O.2      1 ZINC000008994420   -1.0000
4      N4     -0.9002    1.8797   -1.3124 N.pl3    1 ZINC000008994420   -1.0700
5      C5     -0.4169    1.6271   -2.5983 C.ar     1 ZINC000008994420    0.3000
6      C6      0.8018    0.9823   -2.7691 C.ar     1 ZINC000008994420   -0.2500
7      C7      1.2799    0.7318   -4.0410 C.ar     1 ZINC000008994420   -0.0400
8      C8      0.5485    1.1218   -5.1462 C.ar     1 ZINC000008994420   -0.2300
9      C9     -0.6704    1.7672   -4.9822 C.ar     1 ZINC000008994420    0.1500
10     N10    -1.4120    2.1626   -6.1052 N.pl3    1 ZINC000008994420   -0.3000
11     C11    -1.1354    1.9069   -7.4023 C.2      1 ZINC000008994420    0.2200
12     N12    -2.0824    2.4562   -8.1168 N.2      1 ZINC000008994420   -0.3400
13     N13    -2.9388    3.0418   -7.3599 N.2      1 ZINC000008994420   -0.0500
14     N14    -2.6060    2.9049   -6.1217 N.2      1 ZINC000008994420   -0.0800
15     C15    -1.1564    2.0148   -3.7073 C.ar     1 ZINC000008994420   -0.1500
16     C16    -0.9297    1.8941    1.4396 C.ar     1 ZINC000008994420   -0.5900
17     C17    -1.4223    0.9303    2.2985 C.ar     1 ZINC000008994420    0.0000
18     C18    -2.1383    1.3051    3.4214 C.ar     1 ZINC000008994420   -0.1100
19     Br19   -2.8119   -0.0139    4.5971 Br       1 ZINC000008994420   -0.0400
20     C20    -2.3611    2.6446    3.6842 C.ar     1 ZINC000008994420   -0.0500
21     C21    -1.8684    3.6087    2.8250 C.ar     1 ZINC000008994420   -0.1100
22     C22    -1.1480    3.2342    1.7053 C.ar     1 ZINC000008994420    0.0200
23     Br23   -0.4739    4.5533    0.5299 Br       1 ZINC000008994420    0.0000
24     H24     1.3761    0.6769   -1.9069 H        1 ZINC000008994420    0.1100
25     H25     2.2275    0.2305   -4.1714 H        1 ZINC000008994420    0.1200
26     H26     0.9252    0.9248   -6.1391 H        1 ZINC000008994420    0.1200
27     H27    -0.2888    1.3522   -7.7792 H        1 ZINC000008994420    0.2300
28     H28    -2.1041    2.5162   -3.5774 H        1 ZINC000008994420    0.1300
29     H29    -1.2486   -0.1157    2.0931 H        1 ZINC000008994420    0.1600
30     H30    -2.9204    2.9372    4.5605 H        1 ZINC000008994420    0.1400
31     H31    -2.0423    4.6547    3.0303 H        1 ZINC000008994420    0.1500
@<TRIPOS>BOND
1     1     2     2
2     2     3     2
3     2     4     1
4     2     16    1
5     4     5     1
6     5     15    ar
7     5     6     ar
8     6     7     ar
9     6     24    1
10    7     8     ar
11    7     25    1
12    8     9     ar
13    8     26    1
14    9     10    1
15    9     15    ar
16    10    14    1
17    10    11    1
18    11    12    2
19    11    27    1
20    12    13    1
21    13    14    2
22    15    28    1
23    16    22    ar
24    16    17    ar
25    17    18    ar
26    17    29    1
27    18    19    1
28    18    20    ar
29    20    21    ar
30    20    30    1
31    21    22    ar
32    21    31    1
33    22    23    1
@<TRIPOS>SUBSTRUCTURE
1   ZINC000008994420 1     RESIDUE    1   A     ZIN   1

@<TRIPOS>MOLECULE
ZINC000008994420
32    34    1     0     0
SMALL
USER_CHARGES
@<TRIPOS>ATOM
1      O1     -0.4187    1.9336    1.1477 O.2      1 ZINC000008994420   -0.9300
2      S2      0.0978    1.4443   -0.0824 S.o2     1 ZINC000008994420    2.6900
3      O3      0.3126    0.0636   -0.3408 O.2      1 ZINC000008994420   -0.9200
4      N4     -0.9226    1.9887   -1.2675 N.am     1 ZINC000008994420   -1.0500
5      C5     -1.2435    3.3460   -1.3437 C.ar     1 ZINC000008994420    0.1700
6      C6     -1.5936    4.0435   -0.1943 C.ar     1 ZINC000008994420   -0.1400
7      C7     -1.9105    5.3862   -0.2693 C.ar     1 ZINC000008994420   -0.0700
8      C8     -1.8808    6.0391   -1.4865 C.ar     1 ZINC000008994420   -0.1300
9      C9     -1.5320    5.3473   -2.6392 C.ar     1 ZINC000008994420    0.1500
10     N10    -1.5022    6.0113   -3.8744 N.pl3    1 ZINC000008994420   -0.3300
11     C11    -1.6865    7.3299   -4.1013 C.2      1 ZINC000008994420    0.2300
12     N12    -1.5751    7.5214   -5.3898 N.2      1 ZINC000008994420   -0.3300
13     N13    -1.3330    6.4138   -5.9929 N.2      1 ZINC000008994420   -0.0300
14     N14    -1.2680    5.4479   -5.1412 N.2      1 ZINC000008994420   -0.0700
15     C15    -1.2073    4.0011   -2.5671 C.ar     1 ZINC000008994420   -0.1100
16     C16     1.6499    2.2429   -0.3231 C.ar     1 ZINC000008994420   -0.6500
17     C17     2.1383    3.1077    0.6377 C.ar     1 ZINC000008994420    0.0200
18     C18     3.3572    3.7344    0.4489 C.ar     1 ZINC000008994420   -0.1000
19     Br19    4.0259    4.9173    1.7640 Br       1 ZINC000008994420   -0.0200
20     C20     4.0868    3.4954   -0.7016 C.ar     1 ZINC000008994420   -0.0300
21     C21     3.5982    2.6304   -1.6626 C.ar     1 ZINC000008994420   -0.1000
22     C22     2.3822    1.9998   -1.4715 C.ar     1 ZINC000008994420    0.0100
23     Br23    1.7137    0.8165   -2.7863 Br       1 ZINC000008994420    0.0000
24     H24    -1.2976    1.3650   -1.9089 H        1 ZINC000008994420    0.4300
25     H25    -1.6184    3.5357    0.7585 H        1 ZINC000008994420    0.1700
26     H26    -2.1824    5.9265    0.6255 H        1 ZINC000008994420    0.1500
27     H27    -2.1294    7.0886   -1.5417 H        1 ZINC000008994420    0.1400
28     H28    -1.8889    8.0856   -3.3568 H        1 ZINC000008994420    0.2400
29     H29    -0.9355    3.4613   -3.4621 H        1 ZINC000008994420    0.1500
30     H30     1.5684    3.2945    1.5358 H        1 ZINC000008994420    0.1600
31     H31     5.0381    3.9850   -0.8491 H        1 ZINC000008994420    0.1500
32     H32     4.1679    2.4438   -2.5610 H        1 ZINC000008994420    0.1600
@<TRIPOS>BOND
1     1     2     2
2     2     3     2
3     2     4     am
4     2     16    1
5     4     5     1
6     4     24    1
7     5     15    ar
8     5     6     ar
9     6     7     ar
10    6     25    1
11    7     8     ar
12    7     26    1
13    8     9     ar
14    8     27    1
15    9     10    1
16    9     15    ar
17    10    14    1
18    10    11    1
19    11    12    2
20    11    28    1
21    12    13    1
22    13    14    2
23    15    29    1
24    16    22    ar
25    16    17    ar
26    17    18    ar
27    17    30    1
28    18    19    1
29    18    20    ar
30    20    21    ar
31    20    31    1
32    21    22    ar
33    21    32    1
34    22    23    1
@<TRIPOS>SUBSTRUCTURE
1   ZINC000008994420 1     RESIDUE    1   A     ZIN   1
@<TRIPOS>MOLECULE
ZINC000065194190
49    52    1     0     0
SMALL
USER_CHARGES
@<TRIPOS>ATOM
1      C1     -0.3763    1.3997   -0.0393 C.3      1 ZINC000065194190   -0.0900
2      C2     -0.2586   -0.1027   -0.0356 C.2      1 ZINC000065194190    0.0700
3      C3     -0.1968   -0.9041   -1.1371 C.2      1 ZINC000065194190   -0.0300
4      C4     -0.2325   -0.4644   -2.5470 C.2      1 ZINC000065194190    0.2100
5      N5     -0.1780   -1.2386   -3.6062 N.2      1 ZINC000065194190   -0.2200
6      N6     -0.2339   -0.5118   -4.6664 N.2      1 ZINC000065194190   -0.2700
7      C7     -0.3255    0.7435   -4.3304 C.2      1 ZINC000065194190    0.1700
8      C8     -0.4138    1.9134   -5.2761 C.3      1 ZINC000065194190   -0.0300
9      C9      0.4554    1.7551   -6.5348 C.3      1 ZINC000065194190   -0.1200
10     C10    -0.7548    1.0672   -7.1883 C.3      1 ZINC000065194190   -0.1400
11     C11    -1.6354    1.8608   -6.2087 C.3      1 ZINC000065194190   -0.1300
12     O12    -0.3328    0.8062   -2.9863 O.3      1 ZINC000065194190   -0.2200
13     C13    -0.0907   -2.2419   -0.6716 C.2      1 ZINC000065194190   -0.7100
14     S14     0.0227   -3.6893   -1.6700 S.o2     1 ZINC000065194190    2.7000
15     O15    -0.4376   -4.7677   -0.8672 O.2      1 ZINC000065194190   -0.9600
16     O16    -0.5509   -3.3559   -2.9266 O.2      1 ZINC000065194190   -0.8900
17     N17     1.6311   -3.9675   -1.9492 N.am     1 ZINC000065194190   -1.0500
18     C18     2.4872   -4.2522   -0.8807 C.ar     1 ZINC000065194190    0.1400
19     C19     2.0331   -5.0061    0.1927 C.ar     1 ZINC000065194190   -0.1500
20     C20     2.8808   -5.2861    1.2475 C.ar     1 ZINC000065194190   -0.0900
21     C21     4.1807   -4.8165    1.2362 C.ar     1 ZINC000065194190   -0.1000
22     C22     4.6388   -4.0638    0.1685 C.ar     1 ZINC000065194190   -0.0500
23     Cl23    6.2720   -3.4755    0.1589 Cl       1 ZINC000065194190   -0.0400
24     C24     3.7973   -3.7854   -0.8938 C.ar     1 ZINC000065194190    0.0900
25     F25     4.2436   -3.0509   -1.9362 F        1 ZINC000065194190   -0.1200
26     C26    -0.0925   -2.1989    0.6729 C.2      1 ZINC000065194190    0.1700
27     C27     0.0033   -3.3900    1.5911 C.3      1 ZINC000065194190   -0.1400
28     N28    -0.1896   -0.8956    1.0664 N.pl3    1 ZINC000065194190   -0.4300
29     C29    -0.2227   -0.4270    2.4540 C.3      1 ZINC000065194190    0.0600
30     H30     0.6198    1.8422   -0.0462 H        1 ZINC000065194190    0.0800
31     H31    -0.9219    1.7192   -0.9272 H        1 ZINC000065194190    0.0900
32     H32    -0.9120    1.7244    0.8527 H        1 ZINC000065194190    0.0800
33     H33    -0.2880    2.8732   -4.7749 H        1 ZINC000065194190    0.1100
34     H34     0.7240    2.7025   -7.0020 H        1 ZINC000065194190    0.1000
35     H35     1.3105    1.0938   -6.3946 H        1 ZINC000065194190    0.0800
36     H36    -0.9035    1.3442   -8.2319 H        1 ZINC000065194190    0.0700
37     H37    -0.7841   -0.0104   -7.0270 H        1 ZINC000065194190    0.1000
38     H38    -2.4682    1.2849   -5.8053 H        1 ZINC000065194190    0.0700
39     H39    -1.9384    2.8372   -6.5868 H        1 ZINC000065194190    0.1000
40     H40     1.9794   -3.9329   -2.8538 H        1 ZINC000065194190    0.4300
41     H41     1.0175   -5.3733    0.2037 H        1 ZINC000065194190    0.1800
42     H42     2.5269   -5.8728    2.0824 H        1 ZINC000065194190    0.1500
43     H43     4.8405   -5.0369    2.0624 H        1 ZINC000065194190    0.1500
44     H44     1.0508   -3.5957    1.8112 H        1 ZINC000065194190    0.0900
45     H45    -0.5279   -3.1772    2.5188 H        1 ZINC000065194190    0.0800
46     H46    -0.4437   -4.2585    1.1074 H        1 ZINC000065194190    0.1300
47     H47     0.7938   -0.2339    2.7967 H        1 ZINC000065194190    0.0900
48     H48    -0.8068    0.4914    2.5135 H        1 ZINC000065194190    0.0900
49     H49    -0.6799   -1.1897    3.0843 H        1 ZINC000065194190    0.1000
@<TRIPOS>BOND
1     1     2     1
2     1     30    1
3     1     31    1
4     1     32    1
5     2     28    1
6     2     3     2
7     3     4     1
8     3     13    1
9     4     12    1
10    4     5     2
11    5     6     1
12    6     7     2
13    7     8     1
14    7     12    1
15    8     11    1
16    8     9     1
17    8     33    1
18    9     10    1
19    9     34    1
20    9     35    1
21    10    11    1
22    10    36    1
23    10    37    1
24    11    38    1
25    11    39    1
26    13    14    1
27    13    26    2
28    14    15    2
29    14    16    2
30    14    17    am
31    17    18    1
32    17    40    1
33    18    24    ar
34    18    19    ar
35    19    20    ar
36    19    41    1
37    20    21    ar
38    20    42    1
39    21    22    ar
40    21    43    1
41    22    23    1
42    22    24    ar
43    24    25    1
44    26    27    1
45    26    28    1
46    27    44    1
47    27    45    1
48    27    46    1
49    28    29    1
50    29    47    1
51    29    48    1
52    29    49    1
@<TRIPOS>SUBSTRUCTURE
1   ZINC000065194190 1     RESIDUE    1   A     ZIN   1

@<TRIPOS>MOLECULE
ZINC000065194190
48    51    1     0     0
SMALL
USER_CHARGES
@<TRIPOS>ATOM
1      C1     -0.0184    1.5028    0.0103 C.3      1 ZINC000065194190   -0.0800
2      C2      0.0021   -0.0041    0.0020 C.2      1 ZINC000065194190    0.0500
3      C3      0.0079   -0.7990   -1.1058 C.2      1 ZINC000065194190   -0.0300
4      C4     -0.0046   -0.3468   -2.5122 C.2      1 ZINC000065194190    0.2200
5      N5     -0.0042   -1.1145   -3.5775 N.2      1 ZINC000065194190   -0.1900
6      N6     -0.0171   -0.3772   -4.6318 N.2      1 ZINC000065194190   -0.2700
7      C7     -0.0261    0.8786   -4.2858 C.2      1 ZINC000065194190    0.1500
8      C8     -0.0422    2.0593   -5.2222 C.3      1 ZINC000065194190   -0.0200
9      C9      0.8102    1.8552   -6.4857 C.3      1 ZINC000065194190   -0.1200
10     C10    -0.4444    1.2520   -7.1393 C.3      1 ZINC000065194190   -0.1400
11     C11    -1.2682    2.0931   -6.1500 C.3      1 ZINC000065194190   -0.1300
12     O12    -0.0244    0.9310   -2.9413 O.3      1 ZINC000065194190   -0.2300
13     C13     0.0291   -2.1446   -0.6511 C.2      1 ZINC000065194190   -0.6500
14     S14     0.0451   -3.5883   -1.6610 S.o2     1 ZINC000065194190    2.6300
15     O15    -0.4809   -4.6410   -0.8646 O.2      1 ZINC000065194190   -1.0400
16     O16    -0.5105   -3.2086   -2.9126 O.2      1 ZINC000065194190   -0.9800
17     N17     1.6311   -3.9675   -1.9492 N.pl3    1 ZINC000065194190   -1.0800
18     C18     1.9528   -5.0805   -2.7323 C.ar     1 ZINC000065194190    0.2700
19     C19     0.9439   -5.8652   -3.2736 C.ar     1 ZINC000065194190   -0.2400
20     C20     1.2641   -6.9647   -4.0471 C.ar     1 ZINC000065194190   -0.0600
21     C21     2.5879   -7.2851   -4.2828 C.ar     1 ZINC000065194190   -0.2000
22     C22     3.5981   -6.5062   -3.7451 C.ar     1 ZINC000065194190   -0.0200
23     Cl23    5.2593   -6.9128   -4.0433 Cl       1 ZINC000065194190   -0.0900
24     C24     3.2844   -5.4003   -2.9753 C.ar     1 ZINC000065194190    0.0300
25     F25     4.2697   -4.6397   -2.4502 F        1 ZINC000065194190   -0.1400
26     C26     0.0352   -2.1121    0.6937 C.2      1 ZINC000065194190    0.1400
27     C27     0.0573   -3.3142    1.6024 C.3      1 ZINC000065194190   -0.1200
28     N28     0.0239   -0.8085    1.0976 N.pl3    1 ZINC000065194190   -0.4400
29     C29     0.0263   -0.3497    2.4889 C.3      1 ZINC000065194190    0.0700
30     H30     1.0042    1.8801    0.0026 H        1 ZINC000065194190    0.0800
31     H31    -0.5455    1.8639   -0.8728 H        1 ZINC000065194190    0.0800
32     H32    -0.5286    1.8543    0.9071 H        1 ZINC000065194190    0.0700
33     H33     0.1471    3.0050   -4.7142 H        1 ZINC000065194190    0.1000
34     H34     1.1376    2.7870   -6.9468 H        1 ZINC000065194190    0.0900
35     H35     1.6212    1.1389   -6.3543 H        1 ZINC000065194190    0.0800
36     H36    -0.5789    1.5463   -8.1802 H        1 ZINC000065194190    0.0700
37     H37    -0.5427    0.1773   -6.9862 H        1 ZINC000065194190    0.1000
38     H38    -2.1350    1.5689   -5.7474 H        1 ZINC000065194190    0.0700
39     H39    -1.5090    3.0899   -6.5192 H        1 ZINC000065194190    0.0900
40     H40    -0.0910   -5.6169   -3.0899 H        1 ZINC000065194190    0.1100
41     H41     0.4787   -7.5749   -4.4680 H        1 ZINC000065194190    0.1200
42     H42     2.8346   -8.1453   -4.8875 H        1 ZINC000065194190    0.1200
43     H43     1.0902   -3.5888    1.8164 H        1 ZINC000065194190    0.0900
44     H44    -0.4556   -3.0749    2.5339 H        1 ZINC000065194190    0.0700
45     H45    -0.4467   -4.1482    1.1139 H        1 ZINC000065194190    0.1300
46     H46     1.0545   -0.2254    2.8287 H        1 ZINC000065194190    0.0800
47     H47    -0.4970    0.6040    2.5579 H        1 ZINC000065194190    0.0900
48     H48    -0.4768   -1.0863    3.1153 H        1 ZINC000065194190    0.0900
@<TRIPOS>BOND
1     1     2     1
2     1     30    1
3     1     31    1
4     1     32    1
5     2     28    1
6     2     3     2
7     3     4     1
8     3     13    1
9     4     12    1
10    4     5     2
11    5     6     1
12    6     7     2
13    7     8     1
14    7     12    1
15    8     11    1
16    8     9     1
17    8     33    1
18    9     10    1
19    9     34    1
20    9     35    1
21    10    11    1
22    10    36    1
23    10    37    1
24    11    38    1
25    11    39    1
26    13    14    1
27    13    26    2
28    14    15    2
29    14    16    2
30    14    17    1
31    17    18    1
32    18    24    ar
33    18    19    ar
34    19    20    ar
35    19    40    1
36    20    21    ar
37    20    41    1
38    21    22    ar
39    21    42    1
40    22    23    1
41    22    24    ar
42    24    25    1
43    26    27    1
44    26    28    1
45    27    43    1
46    27    44    1
47    27    45    1
48    28    29    1
49    29    46    1
50    29    47    1
51    29    48    1
@<TRIPOS>SUBSTRUCTURE
1   ZINC000065194190 1     RESIDUE    1   A     ZIN   1
@<TRIPOS>MOLECULE
ZINC000095116586
48    51    1     0     0
SMALL
USER_CHARGES
@<TRIPOS>ATOM
1      C1      0.1490    2.1276    0.5596 C.3      1 ZINC000095116586   -0.6700
2      S2      0.3083    0.3367    0.3190 S.o2     1 ZINC000095116586    2.6000
3      O3      1.2970   -0.1973    1.1888 O.2      1 ZINC000095116586   -0.9500
4      O4     -0.9731   -0.2674    0.2079 O.2      1 ZINC000095116586   -0.9400
5      N5      0.9662    0.1797   -1.1925 N.am     1 ZINC000095116586   -1.0400
6      C6      2.2104    0.7411   -1.4725 C.ar     1 ZINC000095116586    0.2000
7      C7      3.1686    0.8447   -0.4750 C.ar     1 ZINC000095116586   -0.1900
8      C8      4.4021    1.4012   -0.7547 C.ar     1 ZINC000095116586   -0.0600
9      C9      4.6917    1.8589   -2.0288 C.ar     1 ZINC000095116586   -0.1400
10     C10     3.7512    1.7641   -3.0334 C.ar     1 ZINC000095116586   -0.0600
11     C11     2.5023    1.1992   -2.7669 C.ar     1 ZINC000095116586   -0.0700
12     C12     1.4931    1.0948   -3.8350 C.2      1 ZINC000095116586    0.1500
13     N13     0.2830    0.6802   -3.6770 N.2      1 ZINC000095116586   -0.2300
14     N14    -0.4743    0.6759   -4.8466 N.am     1 ZINC000095116586   -0.4600
15     C15    -1.7616    0.2891   -4.9456 C.2      1 ZINC000095116586    0.5900
16     O16    -2.3203   -0.2145   -3.9902 O.2      1 ZINC000095116586   -0.4800
17     C17    -2.4941    0.4769   -6.2155 C.ar     1 ZINC000095116586   -0.1100
18     C18    -1.7936    0.6979   -7.4024 C.ar     1 ZINC000095116586   -0.1100
19     C19    -2.4824    0.8727   -8.5852 C.ar     1 ZINC000095116586   -0.0900
20     C20    -3.8647    0.8295   -8.5977 C.ar     1 ZINC000095116586   -0.1200
21     C21    -4.5675    0.6110   -7.4233 C.ar     1 ZINC000095116586    0.0900
22     F22    -5.9178    0.5705   -7.4429 F        1 ZINC000095116586   -0.1300
23     C23    -3.8891    0.4284   -6.2336 C.ar     1 ZINC000095116586   -0.0900
24     C24     0.3607    1.1632   -5.9560 C.3      1 ZINC000095116586    0.1800
25     H25     0.4695    0.3941   -6.7207 H        1 ZINC000095116586    0.1400
26     C26    -0.2251    2.4188   -6.5488 C.2      1 ZINC000095116586   -0.0400
27     C27    -0.1854    2.7686   -7.8470 C.2      1 ZINC000095116586   -0.1800
28     C28    -0.8505    4.0114   -7.9569 C.2      1 ZINC000095116586   -0.2100
29     C29    -1.2568    4.3467   -6.7193 C.2      1 ZINC000095116586   -0.0300
30     O30    -0.8803    3.3756   -5.8713 O.3      1 ZINC000095116586   -0.1600
31     C31     1.7153    1.4637   -5.2844 C.3      1 ZINC000095116586   -0.1300
32     H32     1.1330    2.5920    0.4939 H        1 ZINC000095116586    0.1300
33     H33    -0.5004    2.5415   -0.2118 H        1 ZINC000095116586    0.1300
34     H34    -0.2813    2.3255    1.5413 H        1 ZINC000095116586    0.1400
35     H35     0.4855   -0.3030   -1.8830 H        1 ZINC000095116586    0.4400
36     H36     2.9502    0.4903    0.5215 H        1 ZINC000095116586    0.1700
37     H37     5.1447    1.4800    0.0255 H        1 ZINC000095116586    0.1400
38     H38     5.6586    2.2926   -2.2372 H        1 ZINC000095116586    0.1300
39     H39     3.9819    2.1226   -4.0257 H        1 ZINC000095116586    0.1300
40     H40    -0.7142    0.7324   -7.3950 H        1 ZINC000095116586    0.1500
41     H41    -1.9406    1.0441   -9.5036 H        1 ZINC000095116586    0.1400
42     H42    -4.3986    0.9670   -9.5263 H        1 ZINC000095116586    0.1400
43     H43    -4.4369    0.2578   -5.3186 H        1 ZINC000095116586    0.1500
44     H44     0.2681    2.2080   -8.6511 H        1 ZINC000095116586    0.1500
45     H45    -1.0028    4.5821   -8.8611 H        1 ZINC000095116586    0.1500
46     H46    -1.7977    5.2429   -6.4532 H        1 ZINC000095116586    0.2000
47     H47     1.9645    2.5203   -5.3822 H        1 ZINC000095116586    0.1200
48     H48     2.5013    0.8431   -5.7147 H        1 ZINC000095116586    0.1200
@<TRIPOS>BOND
1     1     2     1
2     1     32    1
3     1     33    1
4     1     34    1
5     2     3     2
6     2     4     2
7     2     5     am
8     5     6     1
9     5     35    1
10    6     11    ar
11    6     7     ar
12    7     8     ar
13    7     36    1
14    8     9     ar
15    8     37    1
16    9     10    ar
17    9     38    1
18    10    11    ar
19    10    39    1
20    11    12    1
21    12    31    1
22    12    13    2
23    13    14    1
24    14    15    am
25    14    24    1
26    15    16    2
27    15    17    1
28    17    23    ar
29    17    18    ar
30    18    19    ar
31    18    40    1
32    19    20    ar
33    19    41    1
34    20    21    ar
35    20    42    1
36    21    22    1
37    21    23    ar
38    23    43    1
39    24    25    1
40    24    26    1
41    24    31    1
42    26    30    1
43    26    27    2
44    27    28    1
45    27    44    1
46    28    29    2
47    28    45    1
48    29    30    1
49    29    46    1
50    31    47    1
51    31    48    1
@<TRIPOS>SUBSTRUCTURE
1   ZINC000095116586 1     RESIDUE    1   A     ZIN   1

@<TRIPOS>MOLECULE
ZINC000095116586
47    50    1     0     0
SMALL
USER_CHARGES
@<TRIPOS>ATOM
1      C1     -1.2620   -3.3814   -7.1685 C.3      1 ZINC000095116586   -0.6400
2      S2     -0.9626   -3.9665   -5.4778 S.o2     1 ZINC000095116586    2.5300
3      O3     -2.0839   -3.6918   -4.6492 O.2      1 ZINC000095116586   -1.0200
4      O4     -0.3622   -5.2543   -5.4947 O.2      1 ZINC000095116586   -1.0300
5      N5      0.2263   -2.9691   -4.8998 N.pl3    1 ZINC000095116586   -1.1000
6      C6      0.7324   -3.1597   -3.6157 C.ar     1 ZINC000095116586    0.3200
7      C7      0.2967   -4.2285   -2.8465 C.ar     1 ZINC000095116586   -0.2500
8      C8      0.8001   -4.4162   -1.5733 C.ar     1 ZINC000095116586   -0.0500
9      C9      1.7408   -3.5420   -1.0558 C.ar     1 ZINC000095116586   -0.2300
10     C10     2.1858   -2.4737   -1.8063 C.ar     1 ZINC000095116586   -0.0400
11     C11     1.6901   -2.2744   -3.0964 C.ar     1 ZINC000095116586   -0.1400
12     C12     2.1609   -1.1354   -3.9034 C.2      1 ZINC000095116586    0.2600
13     N13     1.9758    0.1072   -3.6154 N.2      1 ZINC000095116586   -0.2900
14     N14     2.5210    0.9934   -4.5423 N.am     1 ZINC000095116586   -0.4600
15     C15     2.4636    2.3380   -4.4689 C.2      1 ZINC000095116586    0.6000
16     O16     2.8921    3.0156   -5.3832 O.2      1 ZINC000095116586   -0.5300
17     C17     1.8801    2.9888   -3.2772 C.ar     1 ZINC000095116586   -0.1100
18     C18     1.5298    2.2251   -2.1626 C.ar     1 ZINC000095116586   -0.0800
19     C19     0.9853    2.8377   -1.0526 C.ar     1 ZINC000095116586   -0.1100
20     C20     0.7857    4.2062   -1.0416 C.ar     1 ZINC000095116586   -0.1300
21     C21     1.1304    4.9715   -2.1445 C.ar     1 ZINC000095116586    0.0800
22     F22     0.9322    6.3077   -2.1269 F        1 ZINC000095116586   -0.1400
23     C23     1.6822    4.3706   -3.2596 C.ar     1 ZINC000095116586   -0.1000
24     C24     3.1699    0.2216   -5.6140 C.3      1 ZINC000095116586    0.1900
25     H25     2.6977    0.4273   -6.5747 H        1 ZINC000095116586    0.1200
26     C26     4.6437    0.5308   -5.6724 C.2      1 ZINC000095116586   -0.0100
27     C27     5.3769    0.6585   -6.7928 C.2      1 ZINC000095116586   -0.2000
28     C28     6.6998    0.9470   -6.3860 C.2      1 ZINC000095116586   -0.2100
29     C29     6.6959    0.9784   -5.0412 C.2      1 ZINC000095116586   -0.0400
30     O30     5.4466    0.7314   -4.6146 O.3      1 ZINC000095116586   -0.1700
31     C31     2.9414   -1.2438   -5.1938 C.3      1 ZINC000095116586   -0.1300
32     H32    -1.5201   -2.3227   -7.1463 H        1 ZINC000095116586    0.1200
33     H33    -0.3621   -3.5236   -7.7669 H        1 ZINC000095116586    0.1200
34     H34    -2.0838   -3.9465   -7.6084 H        1 ZINC000095116586    0.1000
35     H35    -0.4372   -4.9146   -3.2429 H        1 ZINC000095116586    0.1100
36     H36     0.4574   -5.2497   -0.9782 H        1 ZINC000095116586    0.1000
37     H37     2.1278   -3.6972   -0.0596 H        1 ZINC000095116586    0.1100
38     H38     2.9197   -1.7946   -1.3981 H        1 ZINC000095116586    0.1100
39     H39     1.6845    1.1563   -2.1691 H        1 ZINC000095116586    0.1800
40     H40     0.7139    2.2469   -0.1902 H        1 ZINC000095116586    0.1400
41     H41     0.3591    4.6805   -0.1701 H        1 ZINC000095116586    0.1400
42     H42     1.9511    4.9670   -4.1189 H        1 ZINC000095116586    0.1400
43     H43     5.0231    0.5590   -7.8084 H        1 ZINC000095116586    0.1500
44     H44     7.5504    1.1104   -7.0311 H        1 ZINC000095116586    0.1500
45     H45     7.5514    1.1732   -4.4115 H        1 ZINC000095116586    0.2000
46     H46     3.8941   -1.7475   -5.0300 H        1 ZINC000095116586    0.1000
47     H47     2.3540   -1.7701   -5.9462 H        1 ZINC000095116586    0.1300
@<TRIPOS>BOND
1     1     2     1
2     1     32    1
3     1     33    1
4     1     34    1
5     2     3     2
6     2     4     2
7     2     5     1
8     5     6     1
9     6     11    ar
10    6     7     ar
11    7     8     ar
12    7     35    1
13    8     9     ar
14    8     36    1
15    9     10    ar
16    9     37    1
17    10    11    ar
18    10    38    1
19    11    12    1
20    12    31    1
21    12    13    2
22    13    14    1
23    14    15    am
24    14    24    1
25    15    16    2
26    15    17    1
27    17    23    ar
28    17    18    ar
29    18    19    ar
30    18    39    1
31    19    20    ar
32    19    40    1
33    20    21    ar
34    20    41    1
35    21    22    1
36    21    23    ar
37    23    42    1
38    24    25    1
39    24    26    1
40    24    31    1
41    26    30    1
42    26    27    2
43    27    28    1
44    27    43    1
45    28    29    2
46    28    44    1
47    29    30    1
48    29    45    1
49    31    46    1
50    31    47    1
@<TRIPOS>SUBSTRUCTURE
1   ZINC000095116586 1     RESIDUE    1   A     ZIN   1
@<TRIPOS>MOLECULE
ZINC000003325801
33    35    1     0     0
SMALL
USER_CHARGES
@<TRIPOS>ATOM
1      O1     -0.4475    2.0526    1.0950 O.2      1 ZINC000003325801   -0.9300
2      S2      0.0910    1.4326   -0.0647 S.o2     1 ZINC000003325801    2.7000
3      O3      0.2847    0.0294   -0.1769 O.2      1 ZINC000003325801   -0.9400
4      N4     -0.8869    1.8721   -1.3268 N.am     1 ZINC000003325801   -1.0500
5      C5     -1.1993    3.2203   -1.5332 C.ar     1 ZINC000003325801    0.1400
6      C6     -1.5670    4.0204   -0.4599 C.ar     1 ZINC000003325801   -0.1500
7      C7     -1.8776    5.3514   -0.6639 C.ar     1 ZINC000003325801   -0.0900
8      C8     -1.8232    5.8921   -1.9395 C.ar     1 ZINC000003325801    0.0500
9      O9     -2.1412    7.2041   -2.1221 O.3      1 ZINC000003325801   -0.3000
10     C10    -1.7183    7.8038   -3.3514 C.3      1 ZINC000003325801    0.0200
11     C11    -2.0697    6.8473   -4.4989 C.3      1 ZINC000003325801    0.0200
12     O12    -1.3879    5.6085   -4.2745 O.3      1 ZINC000003325801   -0.3100
13     C13    -1.4517    5.0944   -3.0158 C.ar     1 ZINC000003325801    0.0700
14     C14    -1.1362    3.7602   -2.8105 C.ar     1 ZINC000003325801   -0.1200
15     C15     1.6646    2.1758   -0.3408 C.ar     1 ZINC000003325801   -0.6600
16     C16     2.5888    1.5530   -1.1584 C.ar     1 ZINC000003325801    0.0000
17     C17     3.8248    2.1358   -1.3753 C.ar     1 ZINC000003325801   -0.0500
18     Cl18    4.9854    1.3534   -2.4022 Cl       1 ZINC000003325801   -0.0400
19     C19     4.1353    3.3422   -0.7740 C.ar     1 ZINC000003325801   -0.0400
20     C20     3.2099    3.9652    0.0439 C.ar     1 ZINC000003325801   -0.0400
21     Cl21    3.5985    5.4796    0.7985 Cl       1 ZINC000003325801   -0.0400
22     C22     1.9723    3.3840    0.2558 C.ar     1 ZINC000003325801    0.0000
23     H23    -1.2431    1.1950   -1.9230 H        1 ZINC000003325801    0.4300
24     H24    -1.6106    3.6022    0.5349 H        1 ZINC000003325801    0.1700
25     H25    -2.1639    5.9720    0.1724 H        1 ZINC000003325801    0.1500
26     H26    -2.2339    8.7535   -3.4936 H        1 ZINC000003325801    0.1300
27     H27    -0.6412    7.9696   -3.3280 H        1 ZINC000003325801    0.0800
28     H28    -3.1460    6.6762   -4.5183 H        1 ZINC000003325801    0.0800
29     H29    -1.7482    7.2773   -5.4475 H        1 ZINC000003325801    0.1300
30     H30    -0.8456    3.1396   -3.6452 H        1 ZINC000003325801    0.1400
31     H31     2.3462    0.6111   -1.6279 H        1 ZINC000003325801    0.1600
32     H32     5.1001    3.7973   -0.9426 H        1 ZINC000003325801    0.1600
33     H33     1.2495    3.8705    0.8940 H        1 ZINC000003325801    0.1600
@<TRIPOS>BOND
1     1     2     2
2     2     3     2
3     2     4     am
4     2     15    1
5     4     5     1
6     4     23    1
7     5     14    ar
8     5     6     ar
9     6     7     ar
10    6     24    1
11    7     8     ar
12    7     25    1
13    8     13    ar
14    8     9     1
15    9     10    1
16    10    11    1
17    10    26    1
18    10    27    1
19    11    12    1
20    11    28    1
21    11    29    1
22    12    13    1
23    13    14    ar
24    14    30    1
25    15    22    ar
26    15    16    ar
27    16    17    ar
28    16    31    1
29    17    18    1
30    17    19    ar
31    19    20    ar
32    19    32    1
33    20    21    1
34    20    22    ar
35    22    33    1
@<TRIPOS>SUBSTRUCTURE
1   ZINC000003325801 1     RESIDUE    1   A     ZIN   1

@<TRIPOS>MOLECULE
ZINC000003325801
32    34    1     0     0
SMALL
USER_CHARGES
@<TRIPOS>ATOM
1      O1      0.0021   -0.0041    0.0020 O.2      1 ZINC000003325801   -1.0200
2      S2     -0.0172    1.4168    0.0098 S.o2     1 ZINC000003325801    2.6000
3      O3      1.1617    2.2101    0.0028 O.2      1 ZINC000003325801   -1.0200
4      N4     -0.9002    1.8797   -1.3124 N.pl3    1 ZINC000003325801   -1.0800
5      C5     -0.4161    1.6267   -2.6006 C.ar     1 ZINC000003325801    0.2900
6      C6      0.8018    0.9824   -2.7708 C.ar     1 ZINC000003325801   -0.2600
7      C7      1.2812    0.7342   -4.0429 C.ar     1 ZINC000003325801   -0.0500
8      C8      0.5485    1.1271   -5.1525 C.ar     1 ZINC000003325801   -0.0600
9      O9      1.0414    0.8815   -6.3986 O.3      1 ZINC000003325801   -0.3200
10     C10     0.1115    0.9551   -7.4846 C.3      1 ZINC000003325801    0.0200
11     C11    -0.7231    2.2321   -7.3172 C.3      1 ZINC000003325801    0.0200
12     O12    -1.4088    2.1580   -6.0626 O.3      1 ZINC000003325801   -0.3100
13     C13    -0.6731    1.7692   -4.9854 C.ar     1 ZINC000003325801    0.0900
14     C14    -1.1559    2.0145   -3.7092 C.ar     1 ZINC000003325801   -0.1800
15     C15    -0.9297    1.8941    1.4396 C.ar     1 ZINC000003325801   -0.5900
16     C16    -0.7361    3.1440    1.9972 C.ar     1 ZINC000003325801   -0.0100
17     C17    -1.4519    3.5192    3.1202 C.ar     1 ZINC000003325801   -0.0500
18     Cl18   -1.2087    5.0890    3.8204 Cl       1 ZINC000003325801   -0.0600
19     C19    -2.3619    2.6434    3.6846 C.ar     1 ZINC000003325801   -0.0700
20     C20    -2.5555    1.3929    3.1258 C.ar     1 ZINC000003325801   -0.0500
21     Cl21   -3.6977    0.2934    3.8331 Cl       1 ZINC000003325801   -0.0600
22     C22    -1.8428    1.0208    1.9998 C.ar     1 ZINC000003325801   -0.0100
23     H23     1.3750    0.6753   -1.9085 H        1 ZINC000003325801    0.1100
24     H24     2.2291    0.2333   -4.1731 H        1 ZINC000003325801    0.1200
25     H25     0.6526    0.9911   -8.4301 H        1 ZINC000003325801    0.1100
26     H26    -0.5429    0.0836   -7.4679 H        1 ZINC000003325801    0.0700
27     H27    -0.0682    3.1033   -7.3273 H        1 ZINC000003325801    0.0700
28     H28    -1.4476    2.3067   -8.1282 H        1 ZINC000003325801    0.1100
29     H29    -2.1056    2.5115   -3.5776 H        1 ZINC000003325801    0.1300
30     H30    -0.0256    3.8276    1.5565 H        1 ZINC000003325801    0.1600
31     H31    -2.9206    2.9358    4.5613 H        1 ZINC000003325801    0.1500
32     H32    -1.9942    0.0446    1.5632 H        1 ZINC000003325801    0.1600
@<TRIPOS>BOND
1     1     2     2
2     2     3     2
3     2     4     1
4     2     15    1
5     4     5     1
6     5     14    ar
7     5     6     ar
8     6     7     ar
9     6     23    1
10    7     8     ar
11    7     24    1
12    8     13    ar
13    8     9     1
14    9     10    1
15    10    11    1
16    10    25    1
17    10    26    1
18    11    12    1
19    11    27    1
20    11    28    1
21    12    13    1
22    13    14    ar
23    14    29    1
24    15    22    ar
25    15    16    ar
26    16    17    ar
27    16    30    1
28    17    18    1
29    17    19    ar
30    19    20    ar
31    19    31    1
32    20    21    1
33    20    22    ar
34    22    32    1
@<TRIPOS>SUBSTRUCTURE
1   ZINC000003325801 1     RESIDUE    1   A     ZIN   1
@<TRIPOS>MOLECULE
ZINC000002746805
30    32    1     0     0
SMALL
USER_CHARGES
@<TRIPOS>ATOM
1      O1     -0.4473    2.0526    1.0950 O.2      1 ZINC000002746805   -0.9400
2      S2      0.0911    1.4327   -0.0647 S.o2     1 ZINC000002746805    2.6900
3      O3      0.2848    0.0294   -0.1770 O.2      1 ZINC000002746805   -0.9400
4      N4     -0.8869    1.8721   -1.3268 N.am     1 ZINC000002746805   -1.0500
5      C5     -1.1993    3.2203   -1.5332 C.ar     1 ZINC000002746805    0.1500
6      C6     -1.5669    4.0201   -0.4597 C.ar     1 ZINC000002746805   -0.1400
7      C7     -1.8758    5.3522   -0.6622 C.ar     1 ZINC000002746805   -0.0800
8      C8     -1.8200    5.8927   -1.9361 C.ar     1 ZINC000002746805    0.0300
9      O9     -2.0725    7.1546   -2.3951 O.3      1 ZINC000002746805   -0.3100
10     C10    -1.4606    7.2194   -3.6968 C.3      1 ZINC000002746805    0.2100
11     O11    -1.4731    5.8527   -4.1493 O.3      1 ZINC000002746805   -0.3100
12     C12    -1.4515    5.0927   -3.0155 C.ar     1 ZINC000002746805    0.0500
13     C13    -1.1361    3.7600   -2.8110 C.ar     1 ZINC000002746805   -0.1100
14     C14     1.6647    2.1757   -0.3410 C.ar     1 ZINC000002746805   -0.6700
15     C15     2.5889    1.5529   -1.1589 C.ar     1 ZINC000002746805   -0.0100
16     C16     3.8233    2.1356   -1.3763 C.ar     1 ZINC000002746805   -0.1100
17     C17     4.1337    3.3422   -0.7753 C.ar     1 ZINC000002746805   -0.0400
18     Br18    5.8220    4.1403   -1.0728 Br       1 ZINC000002746805   -0.0300
19     C19     3.2086    3.9651    0.0430 C.ar     1 ZINC000002746805   -0.1100
20     C20     1.9725    3.3842    0.2556 C.ar     1 ZINC000002746805   -0.0100
21     H21    -1.2432    1.1949   -1.9229 H        1 ZINC000002746805    0.4300
22     H22    -1.6120    3.6010    0.5347 H        1 ZINC000002746805    0.1700
23     H23    -2.1615    5.9725    0.1744 H        1 ZINC000002746805    0.1500
24     H24    -2.0478    7.8494   -4.3650 H        1 ZINC000002746805    0.1400
25     H25    -0.4378    7.5885   -3.6213 H        1 ZINC000002746805    0.0900
26     H26    -0.8446    3.1397   -3.6457 H        1 ZINC000002746805    0.1400
27     H27     2.3466    0.6106   -1.6278 H        1 ZINC000002746805    0.1500
28     H28     4.5454    1.6488   -2.0150 H        1 ZINC000002746805    0.1500
29     H29     3.4505    4.9072    0.5124 H        1 ZINC000002746805    0.1500
30     H30     1.2502    3.8704    0.8945 H        1 ZINC000002746805    0.1500
@<TRIPOS>BOND
1     1     2     2
2     2     3     2
3     2     4     am
4     2     14    1
5     4     5     1
6     4     21    1
7     5     13    ar
8     5     6     ar
9     6     7     ar
10    6     22    1
11    7     8     ar
12    7     23    1
13    8     12    ar
14    8     9     1
15    9     10    1
16    10    11    1
17    10    24    1
18    10    25    1
19    11    12    1
20    12    13    ar
21    13    26    1
22    14    20    ar
23    14    15    ar
24    15    16    ar
25    15    27    1
26    16    17    ar
27    16    28    1
28    17    18    1
29    17    19    ar
30    19    20    ar
31    19    29    1
32    20    30    1
@<TRIPOS>SUBSTRUCTURE
1   ZINC000002746805 1     RESIDUE    1   A     ZIN   1

@<TRIPOS>MOLECULE
ZINC000002746805
29    31    1     0     0
SMALL
USER_CHARGES
@<TRIPOS>ATOM
1      O1      0.0021   -0.0041    0.0020 O.2      1 ZINC000002746805   -1.0200
2      S2     -0.0172    1.4168    0.0098 S.o2     1 ZINC000002746805    2.6000
3      O3      1.1617    2.2101    0.0028 O.2      1 ZINC000002746805   -1.0200
4      N4     -0.9002    1.8797   -1.3124 N.pl3    1 ZINC000002746805   -1.0800
5      C5     -0.4161    1.6267   -2.6006 C.ar     1 ZINC000002746805    0.2900
6      C6      0.8018    0.9824   -2.7704 C.ar     1 ZINC000002746805   -0.2600
7      C7      1.2813    0.7317   -4.0425 C.ar     1 ZINC000002746805   -0.0400
8      C8      0.5488    1.1228   -5.1509 C.ar     1 ZINC000002746805   -0.0900
9      O9      0.7956    0.9961   -6.4887 O.3      1 ZINC000002746805   -0.3200
10     C10    -0.4742    1.2036   -7.1349 C.3      1 ZINC000002746805    0.2200
11     O11    -1.1921    2.0478   -6.2156 O.3      1 ZINC000002746805   -0.3200
12     C12    -0.6736    1.7696   -4.9838 C.ar     1 ZINC000002746805    0.0700
13     C13    -1.1564    2.0148   -3.7093 C.ar     1 ZINC000002746805   -0.1600
14     C14    -0.9297    1.8941    1.4396 C.ar     1 ZINC000002746805   -0.6000
15     C15    -0.7361    3.1442    1.9973 C.ar     1 ZINC000002746805   -0.0200
16     C16    -1.4520    3.5192    3.1186 C.ar     1 ZINC000002746805   -0.1200
17     C17    -2.3622    2.6436    3.6827 C.ar     1 ZINC000002746805   -0.0500
18     Br18   -3.3423    3.1564    5.2164 Br       1 ZINC000002746805   -0.0600
19     C19    -2.5555    1.3929    3.1243 C.ar     1 ZINC000002746805   -0.1200
20     C20    -1.8430    1.0207    1.9999 C.ar     1 ZINC000002746805   -0.0200
21     H21     1.3754    0.6770   -1.9077 H        1 ZINC000002746805    0.1100
22     H22     2.2290    0.2303   -4.1722 H        1 ZINC000002746805    0.1200
23     H23    -0.3391    1.7075   -8.0919 H        1 ZINC000002746805    0.1200
24     H24    -0.9946    0.2555   -7.2702 H        1 ZINC000002746805    0.0700
25     H25    -2.1066    2.5109   -3.5778 H        1 ZINC000002746805    0.1300
26     H26    -0.0252    3.8276    1.5570 H        1 ZINC000002746805    0.1500
27     H27    -1.3005    4.4957    3.5544 H        1 ZINC000002746805    0.1400
28     H28    -3.2661    0.7089    3.5644 H        1 ZINC000002746805    0.1400
29     H29    -1.9939    0.0442    1.5638 H        1 ZINC000002746805    0.1500
@<TRIPOS>BOND
1     1     2     2
2     2     3     2
3     2     4     1
4     2     14    1
5     4     5     1
6     5     13    ar
7     5     6     ar
8     6     7     ar
9     6     21    1
10    7     8     ar
11    7     22    1
12    8     12    ar
13    8     9     1
14    9     10    1
15    10    11    1
16    10    23    1
17    10    24    1
18    11    12    1
19    12    13    ar
20    13    25    1
21    14    20    ar
22    14    15    ar
23    15    16    ar
24    15    26    1
25    16    17    ar
26    16    27    1
27    17    18    1
28    17    19    ar
29    19    20    ar
30    19    28    1
31    20    29    1
@<TRIPOS>SUBSTRUCTURE
1   ZINC000002746805 1     RESIDUE    1   A     ZIN   1
@<TRIPOS>MOLECULE
ZINC000005329313
  37   39    0    0    0
SMALL
USER_CHARGES
NO_NAME
@<TRIPOS>ATOM
    1 C1       -0.0184     1.5028     0.0103 C.3    1 <0>      -0.1000
    2 C2        0.0021    -0.0041     0.0020 C.ar   1 <0>      -0.0400
    3 C3        0.0058    -0.6876    -1.1972 C.ar   1 <0>      -0.1700
    4 C4        0.0251    -2.0766    -1.2048 C.ar   1 <0>       0.2900
    5 N5        0.0293    -2.7695    -2.4201 N.pl3  1 <0>      -1.0800
    6 S6        0.0523    -4.4253    -2.4290 S.o2   1 <0>       2.6200
    7 O7        1.3100    -4.8120    -1.8923 O.2    1 <0>      -1.0200
    8 O8       -1.1892    -4.8468    -1.8812 O.2    1 <0>      -1.0200
    9 C9        0.0519    -4.9378    -4.1148 C.2    1 <0>      -0.7100
   10 C10       1.1415    -5.1513    -4.8533 C.2    1 <0>      -0.0200
   11 C11       0.8946    -5.5504    -6.1561 C.2    1 <0>      -0.1400
   12 C12      -0.3971    -5.6607    -6.4746 C.2    1 <0>      -0.1400
   13 Cl13     -1.0077    -6.1406    -8.0272 Cl     1 <0>      -0.0200
   14 S14      -1.3855    -5.2533    -5.0780 S.3    1 <0>       0.2600
   15 C15       0.0406    -2.7772    -0.0059 C.ar   1 <0>      -0.2600
   16 C16       0.0369    -2.0930     1.1935 C.ar   1 <0>      -0.0500
   17 C17       0.0230    -0.7048     1.2008 C.ar   1 <0>       0.0200
   18 N18       0.0197    -0.0105     2.4183 N.am   1 <0>      -0.5500
   19 C19      -1.1938     0.3824     3.1442 C.3    1 <0>       0.1000
   20 C20      -0.7275     0.7080     4.5806 C.3    1 <0>      -0.1300
   21 C21       0.7524     1.0932     4.3519 C.3    1 <0>      -0.1500
   22 C22       1.1277     0.3759     3.0740 C.2    1 <0>       0.5100
   23 O23       2.2630     0.1839     2.6928 O.2    1 <0>      -0.5300
   24 H24       1.0042     1.8801     0.0026 H      1 <0>       0.0600
   25 H25      -0.5455     1.8639    -0.8728 H      1 <0>       0.0600
   26 H26      -0.5286     1.8543     0.9071 H      1 <0>       0.0600
   27 H27      -0.0067    -0.1426    -2.1295 H      1 <0>       0.1200
   28 H28       2.1410    -5.0223    -4.4649 H      1 <0>       0.1600
   29 H29       1.6867    -5.7563    -6.8609 H      1 <0>       0.1500
   30 H30       0.0553    -3.8570    -0.0116 H      1 <0>       0.1000
   31 H31       0.0487    -2.6378     2.1259 H      1 <0>       0.1000
   32 H32      -1.6401     1.2638     2.6837 H      1 <0>       0.0700
   33 H33      -1.9087    -0.4403     3.1571 H      1 <0>       0.0800
   34 H34      -1.2896     1.5461     4.9926 H      1 <0>       0.0900
   35 H35      -0.8076    -0.1677     5.2246 H      1 <0>       0.0800
   36 H36       0.8516     2.1720     4.2316 H      1 <0>       0.1000
   37 H37       1.3701     0.7423     5.1786 H      1 <0>       0.1000
@<TRIPOS>BOND
   1    1    2 1
   2    1   24 1
   3    1   25 1
   4    1   26 1
   5    2   17 ar
   6    2    3 ar
   7    3    4 ar
   8    3   27 1
   9    4    5 1
  10    4   15 ar
  11    5    6 1
  12    6    7 2
  13    6    8 2
  14    6    9 1
  15    9   14 1
  16    9   10 2
  17   10   11 1
  18   10   28 1
  19   11   12 2
  20   11   29 1
  21   12   13 1
  22   12   14 1
  23   15   16 ar
  24   15   30 1
  25   16   17 ar
  26   16   31 1
  27   17   18 1
  28   18   22 am
  29   18   19 1
  30   19   20 1
  31   19   32 1
  32   19   33 1
  33   20   21 1
  34   20   34 1
  35   20   35 1
  36   21   22 1
  37   21   36 1
  38   21   37 1
  39   22   23 2

@<TRIPOS>MOLECULE
ZINC000005329313
  38   40    0    0    0
SMALL
USER_CHARGES
NO_NAME
@<TRIPOS>ATOM
    1 C1       -0.2144     1.4496     0.0904 C.3    1 <0>      -0.1100
    2 C2       -0.1140    -0.0536     0.0538 C.ar   1 <0>      -0.0600
    3 C3       -0.0892    -0.7143    -1.1579 C.ar   1 <0>      -0.1200
    4 C4        0.0037    -2.0999    -1.1917 C.ar   1 <0>       0.1500
    5 N5        0.0293    -2.7696    -2.4196 N.am   1 <0>      -1.0500
    6 S6        1.1435    -3.9650    -2.6877 S.o2   1 <0>       2.7200
    7 O7        1.0328    -4.8687    -1.5966 O.2    1 <0>      -0.9300
    8 O8        0.9888    -4.3611    -4.0436 O.2    1 <0>      -0.9400
    9 C9        2.7392    -3.2282    -2.5635 C.2    1 <0>      -0.8000
   10 C10       3.4966    -3.2157    -1.4661 C.2    1 <0>       0.0300
   11 C11       4.7169    -2.5764    -1.6063 C.2    1 <0>      -0.1500
   12 C12       4.9494    -2.0696    -2.8193 C.2    1 <0>      -0.1100
   13 Cl13      6.3874    -1.2183    -3.2896 Cl     1 <0>       0.0100
   14 S14       3.5792    -2.4035    -3.8703 S.3    1 <0>       0.2700
   15 C15       0.0717    -2.8201    -0.0063 C.ar   1 <0>      -0.1500
   16 C16       0.0469    -2.1588     1.2056 C.ar   1 <0>      -0.0800
   17 C17      -0.0407    -0.7736     1.2390 C.ar   1 <0>       0.1300
   18 N18      -0.0654    -0.1026     2.4692 N.am   1 <0>      -0.5800
   19 C19      -1.2887     0.2119     3.2165 C.3    1 <0>       0.1000
   20 C20      -0.8222     0.5360     4.6531 C.3    1 <0>      -0.1300
   21 C21       0.6322     1.0037     4.4143 C.3    1 <0>      -0.1500
   22 C22       1.0287     0.3305     3.1189 C.2    1 <0>       0.5200
   23 O23       2.1678     0.2062     2.7209 O.2    1 <0>      -0.5200
   24 H24       0.7866     1.8810     0.0777 H      1 <0>       0.0700
   25 H25      -0.7711     1.7979    -0.7795 H      1 <0>       0.0700
   26 H26      -0.7311     1.7572     0.9995 H      1 <0>       0.0700
   27 H27      -0.1425    -0.1540    -2.0797 H      1 <0>       0.1400
   28 H28      -0.6056    -2.5337    -3.1140 H      1 <0>       0.4300
   29 H29       3.1820    -3.6696    -0.5380 H      1 <0>       0.1700
   30 H30       5.4262    -2.4937    -0.7961 H      1 <0>       0.1600
   31 H31       0.1436    -3.8974    -0.0323 H      1 <0>       0.1600
   32 H32       0.0994    -2.7189     2.1275 H      1 <0>       0.1300
   33 H33      -1.7870     1.0764     2.7777 H      1 <0>       0.0800
   34 H34      -1.9587    -0.6478     3.2224 H      1 <0>       0.0800
   35 H35      -1.4227     1.3354     5.0872 H      1 <0>       0.0900
   36 H36      -0.8475    -0.3542     5.2816 H      1 <0>       0.0900
   37 H37       0.6724     2.0883     4.3130 H      1 <0>       0.1100
   38 H38       1.2780     0.6714     5.2270 H      1 <0>       0.1100
@<TRIPOS>BOND
   1    1    2 1
   2    1   24 1
   3    1   25 1
   4    1   26 1
   5    2   17 ar
   6    2    3 ar
   7    3    4 ar
   8    3   27 1
   9    4    5 1
  10    4   15 ar
  11    5    6 am
  12    5   28 1
  13    6    7 2
  14    6    8 2
  15    6    9 1
  16    9   14 1
  17    9   10 2
  18   10   11 1
  19   10   29 1
  20   11   12 2
  21   11   30 1
  22   12   13 1
  23   12   14 1
  24   15   16 ar
  25   15   31 1
  26   16   17 ar
  27   16   32 1
  28   17   18 1
  29   18   22 am
  30   18   19 1
  31   19   20 1
  32   19   33 1
  33   19   34 1
  34   20   21 1
  35   20   35 1
  36   20   36 1
  37   21   22 1
  38   21   37 1
  39   21   38 1
  40   22   23 2
@<TRIPOS>MOLECULE
ZINC000005330125
  44   46    0    0    0
SMALL
USER_CHARGES
NO_NAME
@<TRIPOS>ATOM
    1 C1       -0.0184     1.5028     0.0103 C.3    1 <0>      -0.1100
    2 C2        0.0021    -0.0041     0.0020 C.ar   1 <0>      -0.0800
    3 C3        0.0057    -0.6874    -1.1986 C.ar   1 <0>      -0.0900
    4 C4        0.0240    -2.0689    -1.2106 C.ar   1 <0>      -0.1400
    5 C5        0.0387    -2.7753    -0.0142 C.ar   1 <0>       0.1400
    6 N6        0.0572    -4.1719    -0.0270 N.am   1 <0>      -1.0500
    7 S7        1.0774    -4.9771    -1.0532 S.o2   1 <0>       2.7000
    8 O8        0.8854    -6.3629    -0.8043 O.2    1 <0>      -0.9500
    9 O9        0.9062    -4.3865    -2.3343 O.2    1 <0>      -0.9400
   10 C10       2.7244    -4.6047    -0.5497 C.ar   1 <0>      -0.6900
   11 C11       3.3779    -3.5085    -1.0812 C.ar   1 <0>       0.0200
   12 C12       4.6696    -3.2154    -0.6870 C.ar   1 <0>      -0.1700
   13 C13       5.3091    -4.0199     0.2408 C.ar   1 <0>       0.1600
   14 F14       6.5718    -3.7341     0.6272 F      1 <0>      -0.1300
   15 C15       4.6534    -5.1173     0.7728 C.ar   1 <0>      -0.1800
   16 C16       3.3600    -5.4056     0.3807 C.ar   1 <0>       0.0100
   17 C17       0.0356    -2.0915     1.1937 C.ar   1 <0>      -0.1100
   18 C18       0.0230    -0.7044     1.2019 C.ar   1 <0>       0.1500
   19 N19       0.0202    -0.0113     2.4174 N.am   1 <0>      -0.5600
   20 C20      -1.2685     0.3101     3.0175 C.3    1 <0>       0.1100
   21 C21      -1.1033     0.6218     4.5055 C.3    1 <0>      -0.1400
   22 C22       0.0114     1.6621     4.6684 C.3    1 <0>      -0.1300
   23 C23       1.3406     1.0126     4.2756 C.3    1 <0>      -0.1300
   24 C24       1.1970     0.3090     2.9569 C.2    1 <0>       0.5200
   25 O25       2.2050     0.0237     2.3457 O.2    1 <0>      -0.5400
   26 H26       1.0042     1.8801     0.0026 H      1 <0>       0.0700
   27 H27      -0.5455     1.8639    -0.8728 H      1 <0>       0.0700
   28 H28      -0.5286     1.8543     0.9071 H      1 <0>       0.0700
   29 H29      -0.0061    -0.1405    -2.1298 H      1 <0>       0.1400
   30 H30       0.0264    -2.6002    -2.1509 H      1 <0>       0.1600
   31 H31      -0.5276    -4.6701     0.5652 H      1 <0>       0.4300
   32 H32       2.8789    -2.8811    -1.8049 H      1 <0>       0.1500
   33 H33       5.1803    -2.3594    -1.1029 H      1 <0>       0.1500
   34 H34       5.1514    -5.7457     1.4963 H      1 <0>       0.1500
   35 H35       2.8482    -6.2613     0.7957 H      1 <0>       0.1500
   36 H36       0.0471    -2.6381     2.1251 H      1 <0>       0.1300
   37 H37      -1.6946     1.1773     2.5130 H      1 <0>       0.0700
   38 H38      -1.9425    -0.5384     2.8998 H      1 <0>       0.0800
   39 H39      -2.0370     1.0212     4.9014 H      1 <0>       0.0900
   40 H40      -0.8354    -0.2884     5.0422 H      1 <0>       0.0700
   41 H41      -0.1857     2.5157     4.0199 H      1 <0>       0.0700
   42 H42       0.0567     1.9920     5.7063 H      1 <0>       0.0800
   43 H43       2.1098     1.7809     4.1969 H      1 <0>       0.1000
   44 H44       1.6296     0.2895     5.0384 H      1 <0>       0.1000
@<TRIPOS>BOND
   1    1    2 1
   2    1   26 1
   3    1   27 1
   4    1   28 1
   5    2   18 ar
   6    2    3 ar
   7    3    4 ar
   8    3   29 1
   9    4    5 ar
  10    4   30 1
  11    5    6 1
  12    5   17 ar
  13    6    7 am
  14    6   31 1
  15    7    8 2
  16    7    9 2
  17    7   10 1
  18   10   16 ar
  19   10   11 ar
  20   11   12 ar
  21   11   32 1
  22   12   13 ar
  23   12   33 1
  24   13   14 1
  25   13   15 ar
  26   15   16 ar
  27   15   34 1
  28   16   35 1
  29   17   18 ar
  30   17   36 1
  31   18   19 1
  32   19   24 am
  33   19   20 1
  34   20   21 1
  35   20   37 1
  36   20   38 1
  37   21   22 1
  38   21   39 1
  39   21   40 1
  40   22   23 1
  41   22   41 1
  42   22   42 1
  43   23   24 1
  44   23   43 1
  45   23   44 1
  46   24   25 2

@<TRIPOS>MOLECULE
ZINC000005330125
  43   45    0    0    0
SMALL
USER_CHARGES
NO_NAME
@<TRIPOS>ATOM
    1 C1       -0.0184     1.5028     0.0103 C.3    1 <0>      -0.0900
    2 C2        0.0021    -0.0041     0.0020 C.ar   1 <0>      -0.1800
    3 C3        0.0057    -0.6874    -1.1986 C.ar   1 <0>      -0.0600
    4 C4        0.0240    -2.0689    -1.2106 C.ar   1 <0>      -0.2600
    5 C5        0.0387    -2.7753    -0.0142 C.ar   1 <0>       0.2800
    6 N6        0.0572    -4.1719    -0.0270 N.pl3  1 <0>      -1.0900
    7 S7        0.0615    -4.9867    -1.4686 S.o2   1 <0>       2.6000
    8 O8       -1.1946    -4.7268    -2.0802 O.2    1 <0>      -1.0300
    9 O9        1.3046    -4.6937    -2.0915 O.2    1 <0>      -1.0300
   10 C10       0.0860    -6.7084    -1.0946 C.ar   1 <0>      -0.6300
   11 C11       1.2930    -7.3661    -0.9477 C.ar   1 <0>       0.0000
   12 C12       1.3135    -8.7165    -0.6543 C.ar   1 <0>      -0.1800
   13 C13       0.1245    -9.4104    -0.5070 C.ar   1 <0>       0.1300
   14 F14       0.1433   -10.7304    -0.2198 F      1 <0>      -0.1400
   15 C15      -1.0838    -8.7505    -0.6539 C.ar   1 <0>      -0.1800
   16 C16      -1.1018    -7.3991    -0.9425 C.ar   1 <0>       0.0000
   17 C17       0.0356    -2.0915     1.1937 C.ar   1 <0>      -0.1700
   18 C18       0.0230    -0.7044     1.2019 C.ar   1 <0>       0.1700
   19 N19       0.0202    -0.0113     2.4174 N.am   1 <0>      -0.5500
   20 C20      -1.2685     0.3101     3.0175 C.3    1 <0>       0.1100
   21 C21      -1.1033     0.6218     4.5055 C.3    1 <0>      -0.1400
   22 C22       0.0114     1.6621     4.6684 C.3    1 <0>      -0.1200
   23 C23       1.3406     1.0126     4.2756 C.3    1 <0>      -0.1300
   24 C24       1.1970     0.3090     2.9569 C.2    1 <0>       0.5100
   25 O25       2.2050     0.0237     2.3457 O.2    1 <0>      -0.5400
   26 H26       1.0042     1.8801     0.0026 H      1 <0>       0.0500
   27 H27      -0.5455     1.8639    -0.8728 H      1 <0>       0.0500
   28 H28      -0.5286     1.8543     0.9071 H      1 <0>       0.0500
   29 H29      -0.0061    -0.1405    -2.1298 H      1 <0>       0.1100
   30 H30       0.0264    -2.6002    -2.1509 H      1 <0>       0.1000
   31 H31       2.2203    -6.8246    -1.0627 H      1 <0>       0.1500
   32 H32       2.2566    -9.2303    -0.5403 H      1 <0>       0.1400
   33 H33      -2.0119    -9.2909    -0.5395 H      1 <0>       0.1400
   34 H34      -2.0442    -6.8840    -1.0568 H      1 <0>       0.1500
   35 H35       0.0471    -2.6381     2.1251 H      1 <0>       0.1100
   36 H36      -1.6946     1.1773     2.5130 H      1 <0>       0.0600
   37 H37      -1.9425    -0.5384     2.8998 H      1 <0>       0.0800
   38 H38      -2.0370     1.0212     4.9014 H      1 <0>       0.0800
   39 H39      -0.8354    -0.2884     5.0422 H      1 <0>       0.0700
   40 H40      -0.1857     2.5157     4.0199 H      1 <0>       0.0700
   41 H41       0.0567     1.9920     5.7063 H      1 <0>       0.0700
   42 H42       2.1098     1.7809     4.1969 H      1 <0>       0.1000
   43 H43       1.6296     0.2895     5.0384 H      1 <0>       0.1000
@<TRIPOS>BOND
   1    1    2 1
   2    1   26 1
   3    1   27 1
   4    1   28 1
   5    2   18 ar
   6    2    3 ar
   7    3    4 ar
   8    3   29 1
   9    4    5 ar
  10    4   30 1
  11    5    6 1
  12    5   17 ar
  13    6    7 1
  14    7    8 2
  15    7    9 2
  16    7   10 1
  17   10   16 ar
  18   10   11 ar
  19   11   12 ar
  20   11   31 1
  21   12   13 ar
  22   12   32 1
  23   13   14 1
  24   13   15 ar
  25   15   16 ar
  26   15   33 1
  27   16   34 1
  28   17   18 ar
  29   17   35 1
  30   18   19 1
  31   19   24 am
  32   19   20 1
  33   20   21 1
  34   20   36 1
  35   20   37 1
  36   21   22 1
  37   21   38 1
  38   21   39 1
  39   22   23 1
  40   22   40 1
  41   22   41 1
  42   23   24 1
  43   23   42 1
  44   23   43 1
  45   24   25 2
@<TRIPOS>MOLECULE
ZINC000004270510
48    51    1     0     0
SMALL
USER_CHARGES
@<TRIPOS>ATOM
1      C1     -0.0184    1.5028    0.0103 C.3      1 ZINC000004270510   -0.1200
2      C2      0.0021   -0.0041    0.0020 C.ar     1 ZINC000004270510   -0.0900
3      C3      0.0058   -0.6872   -1.2001 C.ar     1 ZINC000004270510   -0.0900
4      C4      0.0249   -2.0683   -1.2113 C.ar     1 ZINC000004270510   -0.1500
5      C5      0.0405   -2.7708   -0.0132 C.ar     1 ZINC000004270510    0.1400
6      N6      0.0604   -4.1673   -0.0209 N.am     1 ZINC000004270510   -1.0600
7      S7      1.0813   -4.9753   -1.0442 S.o2     1 ZINC000004270510    2.6900
8      O8      0.8907   -6.3603   -0.7902 O.2      1 ZINC000004270510   -0.9500
9      O9      0.9095   -4.3896   -2.3275 O.2      1 ZINC000004270510   -0.9500
10     C10     2.7280   -4.5994   -0.5423 C.ar     1 ZINC000004270510   -0.7000
11     C11     3.3798   -3.5057   -1.0770 C.ar     1 ZINC000004270510    0.0200
12     C12     4.6711   -3.1992   -0.6813 C.ar     1 ZINC000004270510   -0.1300
13     C13     5.3083   -3.9923    0.2611 C.ar     1 ZINC000004270510    0.2300
14     C14     4.6561   -5.1031    0.7841 C.ar     1 ZINC000004270510   -0.1400
15     C15     3.3646   -5.3961    0.3910 C.ar     1 ZINC000004270510    0.0100
16     C16     5.3554   -6.0033    1.7686 C.3      1 ZINC000004270510   -0.0800
17     C17     6.3087   -5.1857    2.6380 C.3      1 ZINC000004270510   -0.1400
18     C18     7.1379   -4.2781    1.7704 C.2      1 ZINC000004270510    0.5200
19     O19     8.2986   -4.0725    2.0561 O.2      1 ZINC000004270510   -0.5100
20     N20     6.6086   -3.6930    0.6832 N.am     1 ZINC000004270510   -0.5500
21     C21     7.4029   -2.7207   -0.0808 C.3      1 ZINC000004270510    0.1000
22     C22     6.4975   -1.5243   -0.4011 C.3      1 ZINC000004270510   -0.1400
23     C23     5.3505   -2.0018   -1.2921 C.3      1 ZINC000004270510   -0.0800
24     C24     0.0368   -2.0812    1.1929 C.ar     1 ZINC000004270510   -0.1300
25     C25     0.0229   -0.7004    1.1968 C.ar     1 ZINC000004270510   -0.0700
26     C26     0.0193    0.0485    2.5046 C.3      1 ZINC000004270510   -0.1200
27     H27     1.0042    1.8801    0.0026 H        1 ZINC000004270510    0.0700
28     H28    -0.5455    1.8639   -0.8728 H        1 ZINC000004270510    0.0700
29     H29    -0.5286    1.8543    0.9071 H        1 ZINC000004270510    0.0700
30     H30    -0.0067   -0.1404   -2.1313 H        1 ZINC000004270510    0.1300
31     H31     0.0274   -2.6013   -2.1506 H        1 ZINC000004270510    0.1600
32     H32    -0.5238   -4.6640    0.5732 H        1 ZINC000004270510    0.4300
33     H33     2.8804   -2.8867   -1.8076 H        1 ZINC000004270510    0.1500
34     H34     2.8547   -6.2522    0.8075 H        1 ZINC000004270510    0.1500
35     H35     4.6147   -6.4901    2.4030 H        1 ZINC000004270510    0.1000
36     H36     5.9203   -6.7620    1.2271 H        1 ZINC000004270510    0.0900
37     H37     5.7324   -4.5863    3.3428 H        1 ZINC000004270510    0.1100
38     H38     6.9650   -5.8596    3.1888 H        1 ZINC000004270510    0.1100
39     H39     8.2543   -2.3905    0.5145 H        1 ZINC000004270510    0.1000
40     H40     7.7536   -3.1767   -1.0067 H        1 ZINC000004270510    0.0800
41     H41     6.0949   -1.1125    0.5244 H        1 ZINC000004270510    0.0700
42     H42     7.0727   -0.7602   -0.9239 H        1 ZINC000004270510    0.0900
43     H43     5.7446   -2.2726   -2.2716 H        1 ZINC000004270510    0.0900
44     H44     4.6250   -1.1964   -1.4070 H        1 ZINC000004270510    0.0900
45     H45     0.0485   -2.6244    2.1263 H        1 ZINC000004270510    0.1300
46     H46     1.0460    0.2394    2.8168 H        1 ZINC000004270510    0.0700
47     H47    -0.5045    0.9962    2.3791 H        1 ZINC000004270510    0.0700
48     H48    -0.4863   -0.5484    3.2637 H        1 ZINC000004270510    0.0700
@<TRIPOS>BOND
1     1     2     1
2     1     27    1
3     1     28    1
4     1     29    1
5     2     25    ar
6     2     3     ar
7     3     4     ar
8     3     30    1
9     4     5     ar
10    4     31    1
11    5     6     1
12    5     24    ar
13    6     7     am
14    6     32    1
15    7     8     2
16    7     9     2
17    7     10    1
18    10    15    ar
19    10    11    ar
20    11    12    ar
21    11    33    1
22    12    23    1
23    12    13    ar
24    13    20    1
25    13    14    ar
26    14    15    ar
27    14    16    1
28    15    34    1
29    16    17    1
30    16    35    1
31    16    36    1
32    17    18    1
33    17    37    1
34    17    38    1
35    18    19    2
36    18    20    am
37    20    21    1
38    21    22    1
39    21    39    1
40    21    40    1
41    22    23    1
42    22    41    1
43    22    42    1
44    23    43    1
45    23    44    1
46    24    25    ar
47    24    45    1
48    25    26    1
49    26    46    1
50    26    47    1
51    26    48    1
@<TRIPOS>SUBSTRUCTURE
1   ZINC000004270510 1     RESIDUE    1   A     ZIN   1

@<TRIPOS>MOLECULE
ZINC000004270510
47    50    1     0     0
SMALL
USER_CHARGES
@<TRIPOS>ATOM
1      C1     -0.0184    1.5028    0.0103 C.3      1 ZINC000004270510   -0.0900
2      C2      0.0021   -0.0041    0.0020 C.ar     1 ZINC000004270510   -0.2000
3      C3      0.0058   -0.6872   -1.2001 C.ar     1 ZINC000004270510   -0.0600
4      C4      0.0249   -2.0683   -1.2113 C.ar     1 ZINC000004270510   -0.2700
5      C5      0.0405   -2.7708   -0.0132 C.ar     1 ZINC000004270510    0.2800
6      N6      0.0604   -4.1673   -0.0209 N.pl3    1 ZINC000004270510   -1.0900
7      S7      0.0654   -4.9875   -1.4596 S.o2     1 ZINC000004270510    2.6000
8      O8     -1.1910   -4.7311   -2.0719 O.2      1 ZINC000004270510   -1.0300
9      O9      1.3082   -4.6954   -2.0836 O.2      1 ZINC000004270510   -1.0300
10     C10     0.0917   -6.7077   -1.0792 C.ar     1 ZINC000004270510   -0.6300
11     C11     1.2979   -7.3632   -0.9302 C.ar     1 ZINC000004270510    0.0100
12     C12     1.3266   -8.7134   -0.6231 C.ar     1 ZINC000004270510   -0.1400
13     C13     0.1369   -9.4069   -0.4592 C.ar     1 ZINC000004270510    0.2000
14     C14    -1.0757   -8.7483   -0.6278 C.ar     1 ZINC000004270510   -0.1500
15     C15    -1.0953   -7.3993   -0.9245 C.ar     1 ZINC000004270510    0.0100
16     C16    -2.3746   -9.5009   -0.5048 C.3      1 ZINC000004270510   -0.0700
17     C17    -2.2368  -10.6145    0.5316 C.3      1 ZINC000004270510   -0.1400
18     C18    -0.9714  -11.3893    0.2818 C.2      1 ZINC000004270510    0.5200
19     O19    -0.9584  -12.5888    0.4606 O.2      1 ZINC000004270510   -0.5300
20     N20     0.1440  -10.7688   -0.1372 N.am     1 ZINC000004270510   -0.5500
21     C21     1.3968  -11.5271   -0.2617 C.3      1 ZINC000004270510    0.1000
22     C22     2.5211  -10.6772    0.3443 C.3      1 ZINC000004270510   -0.1300
23     C23     2.6620   -9.3939   -0.4747 C.3      1 ZINC000004270510   -0.0800
24     C24     0.0368   -2.0812    1.1929 C.ar     1 ZINC000004270510   -0.1800
25     C25     0.0229   -0.7004    1.1968 C.ar     1 ZINC000004270510   -0.0500
26     C26     0.0193    0.0485    2.5046 C.3      1 ZINC000004270510   -0.1100
27     H27     1.0042    1.8801    0.0026 H        1 ZINC000004270510    0.0500
28     H28    -0.5455    1.8639   -0.8728 H        1 ZINC000004270510    0.0500
29     H29    -0.5286    1.8543    0.9071 H        1 ZINC000004270510    0.0600
30     H30    -0.0067   -0.1404   -2.1313 H        1 ZINC000004270510    0.1000
31     H31     0.0274   -2.6013   -2.1506 H        1 ZINC000004270510    0.0900
32     H32     2.2234   -6.8205   -1.0539 H        1 ZINC000004270510    0.1400
33     H33    -2.0383   -6.8863   -1.0429 H        1 ZINC000004270510    0.1400
34     H34    -3.1627   -8.8143   -0.1954 H        1 ZINC000004270510    0.1000
35     H35    -2.6339   -9.9353   -1.4703 H        1 ZINC000004270510    0.0800
36     H36    -2.2036  -10.1783    1.5299 H        1 ZINC000004270510    0.1000
37     H37    -3.0928  -11.2853    0.4586 H        1 ZINC000004270510    0.1100
38     H38     1.3134  -12.4693    0.2798 H        1 ZINC000004270510    0.1000
39     H39     1.6072  -11.7222   -1.3133 H        1 ZINC000004270510    0.0800
40     H40     2.2749  -10.4274    1.3763 H        1 ZINC000004270510    0.0700
41     H41     3.4574  -11.2345    0.3142 H        1 ZINC000004270510    0.0900
42     H42     3.0528   -9.6385   -1.4624 H        1 ZINC000004270510    0.0800
43     H43     3.3551   -8.7200    0.0289 H        1 ZINC000004270510    0.0900
44     H44     0.0485   -2.6244    2.1263 H        1 ZINC000004270510    0.1100
45     H45     1.0460    0.2394    2.8168 H        1 ZINC000004270510    0.0600
46     H46    -0.5045    0.9962    2.3791 H        1 ZINC000004270510    0.0600
47     H47    -0.4863   -0.5484    3.2637 H        1 ZINC000004270510    0.0600
@<TRIPOS>BOND
1     1     2     1
2     1     27    1
3     1     28    1
4     1     29    1
5     2     25    ar
6     2     3     ar
7     3     4     ar
8     3     30    1
9     4     5     ar
10    4     31    1
11    5     6     1
12    5     24    ar
13    6     7     1
14    7     8     2
15    7     9     2
16    7     10    1
17    10    15    ar
18    10    11    ar
19    11    12    ar
20    11    32    1
21    12    23    1
22    12    13    ar
23    13    20    1
24    13    14    ar
25    14    15    ar
26    14    16    1
27    15    33    1
28    16    17    1
29    16    34    1
30    16    35    1
31    17    18    1
32    17    36    1
33    17    37    1
34    18    19    2
35    18    20    am
36    20    21    1
37    21    22    1
38    21    38    1
39    21    39    1
40    22    23    1
41    22    40    1
42    22    41    1
43    23    42    1
44    23    43    1
45    24    25    ar
46    24    44    1
47    25    26    1
48    26    45    1
49    26    46    1
50    26    47    1
@<TRIPOS>SUBSTRUCTURE
1   ZINC000004270510 1     RESIDUE    1   A     ZIN   1
@<TRIPOS>MOLECULE
ZINC000012557057
  47   49    0    0    0
SMALL
USER_CHARGES
NO_NAME
@<TRIPOS>ATOM
    1 C1       -0.0357     1.5917     0.0678 C.3    1 <0>      -0.1400
    2 C2       -0.5049     0.2110     0.5310 C.3    1 <0>       0.1400
    3 H3       -0.4397    -0.4940    -0.2977 H      1 <0>       0.0700
    4 C4       -1.9545     0.2981     1.0185 C.3    1 <0>      -0.1300
    5 C5       -2.3720    -1.0509     1.6085 C.3    1 <0>      -0.1200
    6 C6       -1.4789    -1.3843     2.8058 C.3    1 <0>      -0.1400
    7 C7       -0.0238    -1.4904     2.3385 C.3    1 <0>       0.0800
    8 N8        0.3426    -0.2512     1.6386 N.am   1 <0>      -0.6000
    9 C9        1.4322     0.4502     2.0091 C.2    1 <0>       0.5600
   10 O10       1.6693     1.5242     1.4905 O.2    1 <0>      -0.5200
   11 C11       2.3372    -0.0850     3.0439 C.ar   1 <0>      -0.1400
   12 C12       2.4784    -1.4665     3.2045 C.ar   1 <0>      -0.0800
   13 C13       3.3238    -1.9626     4.1703 C.ar   1 <0>      -0.1400
   14 C14       4.0380    -1.0903     4.9871 C.ar   1 <0>       0.1700
   15 N15       4.8918    -1.5948     5.9618 N.am   1 <0>      -1.0500
   16 S16       6.4055    -0.9504     6.1506 S.o2   1 <0>       2.6900
   17 O17       6.2314     0.4548     6.2705 O.2    1 <0>      -0.9400
   18 O18       7.0576    -1.7397     7.1360 O.2    1 <0>      -0.9400
   19 C19       7.2775    -1.2168     4.6428 C.ar   1 <0>      -0.6900
   20 C20       7.9205    -2.4202     4.4202 C.ar   1 <0>       0.0100
   21 C21       8.6047    -2.6303     3.2380 C.ar   1 <0>      -0.1800
   22 C22       8.6458    -1.6351     2.2762 C.ar   1 <0>       0.1600
   23 F23       9.3140    -1.8395     1.1200 F      1 <0>      -0.1300
   24 C24       8.0010    -0.4304     2.5001 C.ar   1 <0>      -0.1700
   25 C25       7.3134    -0.2244     3.6811 C.ar   1 <0>       0.0200
   26 C26       3.8996     0.2860     4.8297 C.ar   1 <0>      -0.1600
   27 C27       3.0599     0.7883     3.8621 C.ar   1 <0>      -0.0400
   28 H28       0.9795     1.5186    -0.3222 H      1 <0>       0.0700
   29 H29      -0.7002     1.9576    -0.7149 H      1 <0>       0.0500
   30 H30      -0.0522     2.2827     0.9107 H      1 <0>       0.0700
   31 H31      -2.0354     1.0704     1.7834 H      1 <0>       0.0700
   32 H32      -2.6059     0.5458     0.1804 H      1 <0>       0.0800
   33 H33      -3.4110    -0.9991     1.9338 H      1 <0>       0.0700
   34 H34      -2.2673    -1.8269     0.8502 H      1 <0>       0.0600
   35 H35      -1.5642    -0.5961     3.5539 H      1 <0>       0.0700
   36 H36      -1.7918    -2.3339     3.2398 H      1 <0>       0.0800
   37 H37       0.6277    -1.6294     3.2012 H      1 <0>       0.1100
   38 H38       0.0809    -2.3360     1.6588 H      1 <0>       0.0700
   39 H39       1.9243    -2.1437     2.5714 H      1 <0>       0.1500
   40 H40       3.4330    -3.0298     4.2951 H      1 <0>       0.1400
   41 H41       4.6007    -2.3241     6.5312 H      1 <0>       0.4300
   42 H42       7.8884    -3.1963     5.1705 H      1 <0>       0.1500
   43 H43       9.1076    -3.5702     3.0645 H      1 <0>       0.1500
   44 H44       8.0326     0.3467     1.7508 H      1 <0>       0.1500
   45 H45       6.8101     0.7151     3.8558 H      1 <0>       0.1500
   46 H46       4.4550     0.9601     5.4648 H      1 <0>       0.1700
   47 H47       2.9532     1.8561     3.7403 H      1 <0>       0.1400
@<TRIPOS>BOND
   1    1    2 1
   2    1   28 1
   3    1   29 1
   4    1   30 1
   5    2    3 1
   6    2    8 1
   7    2    4 1
   8    4    5 1
   9    4   31 1
  10    4   32 1
  11    5    6 1
  12    5   33 1
  13    5   34 1
  14    6    7 1
  15    6   35 1
  16    6   36 1
  17    7    8 1
  18    7   37 1
  19    7   38 1
  20    8    9 am
  21    9   10 2
  22    9   11 1
  23   11   27 ar
  24   11   12 ar
  25   12   13 ar
  26   12   39 1
  27   13   14 ar
  28   13   40 1
  29   14   15 1
  30   14   26 ar
  31   15   16 am
  32   15   41 1
  33   16   17 2
  34   16   18 2
  35   16   19 1
  36   19   25 ar
  37   19   20 ar
  38   20   21 ar
  39   20   42 1
  40   21   22 ar
  41   21   43 1
  42   22   23 1
  43   22   24 ar
  44   24   25 ar
  45   24   44 1
  46   25   45 1
  47   26   27 ar
  48   26   46 1
  49   27   47 1

@<TRIPOS>MOLECULE
ZINC000012557057
  46   48    0    0    0
SMALL
USER_CHARGES
NO_NAME
@<TRIPOS>ATOM
    1 C1        0.0758     1.4678    -0.0947 C.3    1 <0>      -0.1300
    2 C2       -0.3350     0.0515     0.3131 C.3    1 <0>       0.1500
    3 H3       -0.1828    -0.6287    -0.5249 H      1 <0>       0.0600
    4 C4       -1.8118     0.0423     0.7204 C.3    1 <0>      -0.1300
    5 C5       -2.1798    -1.3423     1.2584 C.3    1 <0>      -0.1200
    6 C6       -1.3354    -1.6513     2.4968 C.3    1 <0>      -0.1400
    7 C7        0.1468    -1.6612     2.1097 C.3    1 <0>       0.0900
    8 N8        0.4766    -0.3866     1.4569 N.am   1 <0>      -0.6100
    9 C9        1.5006     0.3682     1.9021 C.2    1 <0>       0.5800
   10 O10       1.6938     1.4713     1.4283 O.2    1 <0>      -0.5500
   11 C11       2.3871    -0.1439     2.9642 C.ar   1 <0>      -0.2600
   12 C12       2.5956    -1.5196     3.0998 C.ar   1 <0>      -0.0600
   13 C13       3.4234    -1.9941     4.0913 C.ar   1 <0>      -0.1900
   14 C14       4.0531    -1.1058     4.9588 C.ar   1 <0>       0.3100
   15 N15       4.8894    -1.5885     5.9593 N.pl3  1 <0>      -1.0800
   16 S16       5.6393    -0.5334     6.9922 S.o2   1 <0>       2.6100
   17 O17       6.5592     0.2119     6.2064 O.2    1 <0>      -1.0200
   18 O18       4.6112     0.0696     7.7660 O.2    1 <0>      -1.0200
   19 C19       6.6043    -1.4948     8.1099 C.ar   1 <0>      -0.6300
   20 C20       6.0475    -1.9446     9.2926 C.ar   1 <0>       0.0100
   21 C21       6.8035    -2.6987    10.1699 C.ar   1 <0>      -0.1800
   22 C22       8.1188    -3.0040     9.8638 C.ar   1 <0>       0.1300
   23 F23       8.8586    -3.7415    10.7206 F      1 <0>      -0.1400
   24 C24       8.6753    -2.5533     8.6788 C.ar   1 <0>      -0.1800
   25 C25       7.9159    -1.8034     7.8007 C.ar   1 <0>       0.0100
   26 C26       3.8475     0.2647     4.8264 C.ar   1 <0>      -0.2800
   27 C27       3.0250     0.7458     3.8336 C.ar   1 <0>       0.0000
   28 H28       1.1110     1.4618    -0.4360 H      1 <0>       0.0700
   29 H29      -0.5705     1.8157    -0.9006 H      1 <0>       0.0300
   30 H30      -0.0206     2.1349     0.7619 H      1 <0>       0.0700
   31 H31      -1.9802     0.7903     1.4952 H      1 <0>       0.0700
   32 H32      -2.4299     0.2715    -0.1477 H      1 <0>       0.0700
   33 H33      -3.2364    -1.3589     1.5259 H      1 <0>       0.0600
   34 H34      -1.9878    -2.0927     0.4915 H      1 <0>       0.0600
   35 H35      -1.5083    -0.8874     3.2548 H      1 <0>       0.0700
   36 H36      -1.6145    -2.6275     2.8931 H      1 <0>       0.0700
   37 H37       0.7573    -1.7824     3.0045 H      1 <0>       0.1200
   38 H38       0.3388    -2.4830     1.4198 H      1 <0>       0.0600
   39 H39       2.1071    -2.2092     2.4273 H      1 <0>       0.1200
   40 H40       3.5846    -3.0568     4.1967 H      1 <0>       0.1200
   41 H41       5.0215    -1.7064     9.5311 H      1 <0>       0.1500
   42 H42       6.3685    -3.0494    11.0941 H      1 <0>       0.1400
   43 H43       9.7013    -2.7906     8.4391 H      1 <0>       0.1400
   44 H44       8.3496    -1.4520     6.8762 H      1 <0>       0.1500
   45 H45       4.3374     0.9513     5.5009 H      1 <0>       0.1000
   46 H46       2.8662     1.8091     3.7311 H      1 <0>       0.1100
@<TRIPOS>BOND
   1    1    2 1
   2    1   28 1
   3    1   29 1
   4    1   30 1
   5    2    3 1
   6    2    8 1
   7    2    4 1
   8    4    5 1
   9    4   31 1
  10    4   32 1
  11    5    6 1
  12    5   33 1
  13    5   34 1
  14    6    7 1
  15    6   35 1
  16    6   36 1
  17    7    8 1
  18    7   37 1
  19    7   38 1
  20    8    9 am
  21    9   10 2
  22    9   11 1
  23   11   27 ar
  24   11   12 ar
  25   12   13 ar
  26   12   39 1
  27   13   14 ar
  28   13   40 1
  29   14   15 1
  30   14   26 ar
  31   15   16 1
  32   16   17 2
  33   16   18 2
  34   16   19 1
  35   19   25 ar
  36   19   20 ar
  37   20   21 ar
  38   20   41 1
  39   21   22 ar
  40   21   42 1
  41   22   23 1
  42   22   24 ar
  43   24   25 ar
  44   24   43 1
  45   25   44 1
  46   26   27 ar
  47   26   45 1
  48   27   46 1
@<TRIPOS>MOLECULE
ZINC000012557179
  50   52    0    0    0
SMALL
USER_CHARGES
NO_NAME
@<TRIPOS>ATOM
    1 C1       -5.4540    -4.6771    -0.4495 C.3    1 <0>      -0.1200
    2 C2       -3.9629    -4.4920    -0.3341 C.ar   1 <0>      -0.0900
    3 C3       -3.4304    -3.2186    -0.2492 C.ar   1 <0>      -0.1000
    4 C4       -2.0644    -3.0453    -0.1433 C.ar   1 <0>      -0.1200
    5 C5       -1.2251    -4.1520    -0.1222 C.ar   1 <0>       0.1300
    6 N6        0.1569    -3.9804    -0.0148 N.am   1 <0>      -1.0500
    7 S7        1.0246    -4.8988     1.0557 S.o2   1 <0>       2.6900
    8 O8        0.6853    -6.2529     0.7898 O.2    1 <0>      -0.9400
    9 O9        2.3581    -4.4094     1.0155 O.2    1 <0>      -0.9500
   10 C10       0.4112    -4.5396     2.6680 C.ar   1 <0>      -0.6600
   11 C11       0.8971    -3.4457     3.3618 C.ar   1 <0>      -0.0200
   12 C12       0.4214    -3.1591     4.6247 C.ar   1 <0>      -0.0900
   13 C13      -0.5526    -3.9754     5.2020 C.ar   1 <0>      -0.0700
   14 C14      -1.0673    -3.6740     6.5548 C.2    1 <0>       0.5600
   15 O15      -1.1578    -2.5206     6.9276 O.2    1 <0>      -0.5300
   16 N16      -1.4362    -4.6781     7.3746 N.am   1 <0>      -0.6000
   17 C17      -1.2163    -6.0786     6.9888 C.3    1 <0>       0.0800
   18 C18      -0.4402    -6.7820     8.1068 C.3    1 <0>      -0.1400
   19 C19      -1.1874    -6.6046     9.4306 C.3    1 <0>      -0.1200
   20 C20      -1.2803    -5.1152     9.7703 C.3    1 <0>      -0.1100
   21 H21      -0.2772    -4.6941     9.8371 H      1 <0>       0.0700
   22 C22      -1.9978    -4.9409    11.1103 C.3    1 <0>      -0.1500
   23 C23      -2.0603    -4.3928     8.6738 C.3    1 <0>       0.1200
   24 C24      -1.0388    -5.0771     4.4964 C.ar   1 <0>      -0.1200
   25 C25      -0.5584    -5.3495     3.2322 C.ar   1 <0>      -0.0200
   26 C26      -1.7633    -5.4297    -0.2076 C.ar   1 <0>      -0.1500
   27 C27      -3.1307    -5.5960    -0.3076 C.ar   1 <0>      -0.1000
   28 H28      -5.8888    -4.7540     0.5471 H      1 <0>       0.0700
   29 H29      -5.8870    -3.8229    -0.9699 H      1 <0>       0.0700
   30 H30      -5.6648    -5.5885    -1.0091 H      1 <0>       0.0700
   31 H31      -4.0835    -2.3586    -0.2660 H      1 <0>       0.1300
   32 H32      -1.6491    -2.0505    -0.0774 H      1 <0>       0.1300
   33 H33       0.6084    -3.3232    -0.5672 H      1 <0>       0.4300
   34 H34       1.6507    -2.8149     2.9140 H      1 <0>       0.1500
   35 H35       0.8020    -2.3053     5.1655 H      1 <0>       0.1400
   36 H36      -2.1769    -6.5729     6.8440 H      1 <0>       0.0800
   37 H37      -0.6402    -6.1168     6.0643 H      1 <0>       0.1000
   38 H38      -0.3540    -7.8440     7.8773 H      1 <0>       0.0800
   39 H39       0.5550    -6.3451     8.1894 H      1 <0>       0.0700
   40 H40      -2.1912    -7.0196     9.3395 H      1 <0>       0.0700
   41 H41      -0.6501    -7.1250    10.2234 H      1 <0>       0.0700
   42 H42      -1.4395    -5.4572    11.8912 H      1 <0>       0.0600
   43 H43      -2.0637    -3.8800    11.3518 H      1 <0>       0.0600
   44 H44      -3.0012    -5.3611    11.0426 H      1 <0>       0.0600
   45 H45      -2.0440    -3.3191     8.8606 H      1 <0>       0.1000
   46 H46      -3.0906    -4.7484     8.6635 H      1 <0>       0.0700
   47 H47      -1.7922    -5.7129     4.9377 H      1 <0>       0.1500
   48 H48      -0.9340    -6.2015     2.6850 H      1 <0>       0.1500
   49 H49      -1.1135    -6.2922    -0.1918 H      1 <0>       0.1600
   50 H50      -3.5498    -6.5892    -0.3741 H      1 <0>       0.1300
@<TRIPOS>BOND
   1    1    2 1
   2    1   28 1
   3    1   29 1
   4    1   30 1
   5    2   27 ar
   6    2    3 ar
   7    3    4 ar
   8    3   31 1
   9    4    5 ar
  10    4   32 1
  11    5    6 1
  12    5   26 ar
  13    6    7 am
  14    6   33 1
  15    7    8 2
  16    7    9 2
  17    7   10 1
  18   10   25 ar
  19   10   11 ar
  20   11   12 ar
  21   11   34 1
  22   12   13 ar
  23   12   35 1
  24   13   14 1
  25   13   24 ar
  26   14   15 2
  27   14   16 am
  28   16   23 1
  29   16   17 1
  30   17   18 1
  31   17   36 1
  32   17   37 1
  33   18   19 1
  34   18   38 1
  35   18   39 1
  36   19   20 1
  37   19   40 1
  38   19   41 1
  39   20   21 1
  40   20   22 1
  41   20   23 1
  42   22   42 1
  43   22   43 1
  44   22   44 1
  45   23   45 1
  46   23   46 1
  47   24   25 ar
  48   24   47 1
  49   25   48 1
  50   26   27 ar
  51   26   49 1
  52   27   50 1

@<TRIPOS>MOLECULE
ZINC000012557179
  49   51    0    0    0
SMALL
USER_CHARGES
NO_NAME
@<TRIPOS>ATOM
    1 C1       -0.7573     1.4703    -0.0138 C.3    1 <0>      -0.0900
    2 C2       -0.6503    -0.0329    -0.0185 C.ar   1 <0>      -0.2000
    3 C3       -0.9390    -0.7414    -1.1705 C.ar   1 <0>      -0.0800
    4 C4       -0.8420    -2.1190    -1.1783 C.ar   1 <0>      -0.1800
    5 C5       -0.4539    -2.7929    -0.0273 C.ar   1 <0>       0.2800
    6 N6       -0.3542    -4.1860    -0.0318 N.pl3  1 <0>      -1.0900
    7 S7        0.1086    -4.9875     1.3414 S.o2   1 <0>       2.6000
    8 O8        1.4596    -4.6202     1.5844 O.2    1 <0>      -1.0300
    9 O9       -0.9321    -4.7935     2.2894 O.2    1 <0>      -1.0300
   10 C10       0.1214    -6.7081     0.9619 C.ar   1 <0>      -0.5900
   11 C11      -1.0235    -7.4627     1.1466 C.ar   1 <0>      -0.0300
   12 C12      -1.0201    -8.8104     0.8518 C.ar   1 <0>      -0.0900
   13 C13       0.1416    -9.4123     0.3658 C.ar   1 <0>      -0.1000
   14 C14       0.1524   -10.8560     0.0473 C.2    1 <0>       0.5600
   15 O15      -0.8016   -11.3625    -0.5103 O.2    1 <0>      -0.5300
   16 N16       1.2200   -11.6105     0.3751 N.am   1 <0>      -0.6100
   17 C17       2.3216   -11.0453     1.1661 C.3    1 <0>       0.0900
   18 C18       2.5656   -11.9426     2.3835 C.3    1 <0>      -0.1400
   19 C19       2.8020   -13.3798     1.9137 C.3    1 <0>      -0.1100
   20 C20       1.5596   -13.8891     1.1794 C.3    1 <0>      -0.1100
   21 H21       0.6980   -13.8407     1.8453 H      1 <0>       0.0700
   22 C22       1.7843   -15.3372     0.7396 C.3    1 <0>      -0.1400
   23 C23       1.3014   -13.0156    -0.0465 C.3    1 <0>       0.1200
   24 C24       1.2931    -8.6453     0.1812 C.ar   1 <0>      -0.1200
   25 C25       1.2747    -7.2975     0.4750 C.ar   1 <0>      -0.0300
   26 C26      -0.1646    -2.0780     1.1282 C.ar   1 <0>      -0.2600
   27 C27      -0.2582    -0.7002     1.1274 C.ar   1 <0>      -0.0600
   28 H28       0.1988     1.9036    -0.3074 H      1 <0>       0.0500
   29 H29      -1.5289     1.7819    -0.7179 H      1 <0>       0.0500
   30 H30      -1.0193     1.8128     0.9873 H      1 <0>       0.0500
   31 H31      -1.2410    -0.2168    -2.0649 H      1 <0>       0.1000
   32 H32      -1.0679    -2.6718    -2.0782 H      1 <0>       0.1100
   33 H33      -1.9217    -6.9957     1.5228 H      1 <0>       0.1400
   34 H34      -1.9142    -9.3985     0.9971 H      1 <0>       0.1300
   35 H35       3.2244   -11.0025     0.5568 H      1 <0>       0.0700
   36 H36       2.0552   -10.0421     1.4990 H      1 <0>       0.1000
   37 H37       3.4418   -11.5885     2.9266 H      1 <0>       0.0800
   38 H38       1.6945   -11.9124     3.0380 H      1 <0>       0.0700
   39 H39       3.6582   -13.4052     1.2396 H      1 <0>       0.0600
   40 H40       3.0002   -14.0158     2.7764 H      1 <0>       0.0700
   41 H41       1.9684   -15.9587     1.6159 H      1 <0>       0.0600
   42 H42       0.8992   -15.6996     0.2167 H      1 <0>       0.0600
   43 H43       2.6452   -15.3850     0.0728 H      1 <0>       0.0600
   44 H44       0.3636   -13.3127    -0.5158 H      1 <0>       0.0900
   45 H45       2.1204   -13.1311    -0.7564 H      1 <0>       0.0700
   46 H46       2.1953    -9.1051    -0.1942 H      1 <0>       0.1300
   47 H47       2.1648    -6.7027     0.3324 H      1 <0>       0.1400
   48 H48       0.1371    -2.5989     2.0249 H      1 <0>       0.1000
   49 H49      -0.0335    -0.1438     2.0254 H      1 <0>       0.1000
@<TRIPOS>BOND
   1    1    2 1
   2    1   28 1
   3    1   29 1
   4    1   30 1
   5    2   27 ar
   6    2    3 ar
   7    3    4 ar
   8    3   31 1
   9    4    5 ar
  10    4   32 1
  11    5    6 1
  12    5   26 ar
  13    6    7 1
  14    7    8 2
  15    7    9 2
  16    7   10 1
  17   10   25 ar
  18   10   11 ar
  19   11   12 ar
  20   11   33 1
  21   12   13 ar
  22   12   34 1
  23   13   14 1
  24   13   24 ar
  25   14   15 2
  26   14   16 am
  27   16   23 1
  28   16   17 1
  29   17   18 1
  30   17   35 1
  31   17   36 1
  32   18   19 1
  33   18   37 1
  34   18   38 1
  35   19   20 1
  36   19   39 1
  37   19   40 1
  38   20   21 1
  39   20   22 1
  40   20   23 1
  41   22   41 1
  42   22   42 1
  43   22   43 1
  44   23   44 1
  45   23   45 1
  46   24   25 ar
  47   24   46 1
  48   25   47 1
  49   26   27 ar
  50   26   48 1
  51   27   49 1
@<TRIPOS>MOLECULE
ZINC000019334058
  49   52    0    0    0
SMALL
USER_CHARGES
NO_NAME
@<TRIPOS>ATOM
    1 O1        0.0021    -0.0041     0.0020 O.2    1 <0>      -0.5100
    2 C2       -0.0145     1.2158     0.0087 C.2    1 <0>       0.5200
    3 C3       -1.2354     1.9174     0.0301 C.2    1 <0>      -0.2500
    4 C4       -1.1989     3.3002     0.0374 C.2    1 <0>       0.2100
    5 C5       -2.4598     4.0802     0.0602 C.ar   1 <0>      -0.0200
    6 C6       -2.4396     5.4780     0.0620 C.ar   1 <0>      -0.1300
    7 C7       -3.6370     6.1649     0.0837 C.ar   1 <0>       0.1000
    8 N8       -4.7872     5.5200     0.1025 N.ar   1 <0>      -0.4700
    9 C9       -4.8505     4.2028     0.1016 C.ar   1 <0>       0.1100
   10 C10      -3.7014     3.4380     0.0747 C.ar   1 <0>      -0.1400
   11 N11      -0.0129     3.9316     0.0240 N.2    1 <0>      -0.5200
   12 C12       1.1096     3.2675     0.0043 C.2    1 <0>       0.4000
   13 C13       2.4109     4.0273    -0.0099 C.3    1 <0>      -0.0600
   14 H14       3.1579     3.4807     0.5657 H      1 <0>       0.1200
   15 C15       2.8943     4.1865    -1.4543 C.3    1 <0>      -0.1300
   16 C16       4.1749     5.0264    -1.4640 C.3    1 <0>      -0.1400
   17 C17       3.8997     6.3737    -0.7927 C.3    1 <0>      -0.0200
   18 N18       3.4668     6.1548     0.5927 N.4    1 <0>      -0.3800
   19 H19       4.1717     5.6265     1.0848 H      1 <0>       0.4200
   20 C20       3.2773     7.4520     1.2557 C.3    1 <0>       0.0500
   21 C21       4.6027     8.1617     1.3588 C.ar   1 <0>      -0.1800
   22 C22       5.4060     7.9672     2.4670 C.ar   1 <0>      -0.0600
   23 C23       6.6216     8.6176     2.5627 C.ar   1 <0>      -0.1500
   24 C24       7.0351     9.4639     1.5479 C.ar   1 <0>       0.1400
   25 F25       8.2235    10.0999     1.6401 F      1 <0>      -0.1200
   26 C26       6.2300     9.6576     0.4382 C.ar   1 <0>      -0.1500
   27 C27       5.0169     9.0024     0.3425 C.ar   1 <0>      -0.0700
   28 C28       2.2014     5.4112     0.6085 C.3    1 <0>       0.0100
   29 N29       1.1369     1.9198     0.0015 N.am   1 <0>      -0.6200
   30 H30      -2.1771     1.3888     0.0401 H      1 <0>       0.1700
   31 H31      -1.5014     6.0127     0.0470 H      1 <0>       0.1400
   32 H32      -3.6317     7.2449     0.0856 H      1 <0>       0.1600
   33 H33      -5.8143     3.7158     0.1178 H      1 <0>       0.1700
   34 H34      -3.7607     2.3596     0.0742 H      1 <0>       0.1400
   35 H35       3.0994     3.2044    -1.8804 H      1 <0>       0.1000
   36 H36       2.1256     4.6872    -2.0428 H      1 <0>       0.1000
   37 H37       4.9588     4.5012    -0.9183 H      1 <0>       0.0900
   38 H38       4.4944     5.1910    -2.4930 H      1 <0>       0.1200
   39 H39       4.8093     6.9743    -0.7980 H      1 <0>       0.1400
   40 H40       3.1159     6.8981    -1.3392 H      1 <0>       0.1300
   41 H41       2.5841     8.0595     0.6739 H      1 <0>       0.1400
   42 H42       2.8713     7.2935     2.2547 H      1 <0>       0.1400
   43 H43       5.0832     7.3071     3.2584 H      1 <0>       0.1400
   44 H44       7.2486     8.4660     3.4288 H      1 <0>       0.1500
   45 H45       6.5514    10.3177    -0.3538 H      1 <0>       0.1500
   46 H46       4.3889     9.1531    -0.5231 H      1 <0>       0.1400
   47 H47       1.4533     5.9556     0.0322 H      1 <0>       0.1500
   48 H48       1.8576     5.3018     1.6371 H      1 <0>       0.1400
   49 H49       1.9876     1.4541    -0.0131 H      1 <0>       0.4200
@<TRIPOS>BOND
   1    1    2 2
   2    2   29 am
   3    2    3 1
   4    3    4 2
   5    3   30 1
   6    4    5 1
   7    4   11 1
   8    5   10 ar
   9    5    6 ar
  10    6    7 ar
  11    6   31 1
  12    7    8 ar
  13    7   32 1
  14    8    9 ar
  15    9   10 ar
  16    9   33 1
  17   10   34 1
  18   11   12 2
  19   12   13 1
  20   12   29 1
  21   13   14 1
  22   13   28 1
  23   13   15 1
  24   15   16 1
  25   15   35 1
  26   15   36 1
  27   16   17 1
  28   16   37 1
  29   16   38 1
  30   17   18 1
  31   17   39 1
  32   17   40 1
  33   18   19 1
  34   18   20 1
  35   18   28 1
  36   20   21 1
  37   20   41 1
  38   20   42 1
  39   21   27 ar
  40   21   22 ar
  41   22   23 ar
  42   22   43 1
  43   23   24 ar
  44   23   44 1
  45   24   25 1
  46   24   26 ar
  47   26   27 ar
  48   26   45 1
  49   27   46 1
  50   28   47 1
  51   28   48 1
  52   29   49 1

@<TRIPOS>MOLECULE
ZINC000019334058
  49   52    0    0    0
SMALL
USER_CHARGES
NO_NAME
@<TRIPOS>ATOM
    1 O1        0.0021    -0.0041     0.0020 O.2    1 <0>      -0.5100
    2 C2       -0.0145     1.2158     0.0087 C.2    1 <0>       0.5200
    3 C3       -1.2354     1.9174     0.0301 C.2    1 <0>      -0.2500
    4 C4       -1.1989     3.3002     0.0374 C.2    1 <0>       0.2200
    5 C5       -2.4598     4.0802     0.0602 C.ar   1 <0>      -0.0200
    6 C6       -2.4396     5.4780     0.0620 C.ar   1 <0>      -0.1300
    7 C7       -3.6370     6.1649     0.0837 C.ar   1 <0>       0.1000
    8 N8       -4.7872     5.5200     0.1025 N.ar   1 <0>      -0.4700
    9 C9       -4.8505     4.2028     0.1016 C.ar   1 <0>       0.1100
   10 C10      -3.7014     3.4380     0.0747 C.ar   1 <0>      -0.1400
   11 N11      -0.0129     3.9316     0.0240 N.2    1 <0>      -0.5200
   12 C12       1.1096     3.2675     0.0043 C.2    1 <0>       0.4000
   13 C13       2.4109     4.0273    -0.0099 C.3    1 <0>      -0.0600
   14 H14       3.1579     3.4807     0.5657 H      1 <0>       0.1200
   15 C15       2.8943     4.1865    -1.4543 C.3    1 <0>      -0.1300
   16 C16       4.1749     5.0264    -1.4640 C.3    1 <0>      -0.1500
   17 C17       3.8997     6.3737    -0.7927 C.3    1 <0>      -0.0200
   18 N18       3.4668     6.1548     0.5927 N.4    1 <0>      -0.3800
   19 H19       3.3379     7.0458     1.0484 H      1 <0>       0.4300
   20 C20       4.4922     5.3842     1.3086 C.3    1 <0>       0.0300
   21 C21       5.7551     6.2003     1.4090 C.ar   1 <0>      -0.1700
   22 C22       6.7110     6.1189     0.4136 C.ar   1 <0>      -0.0700
   23 C23       7.8695     6.8669     0.5046 C.ar   1 <0>      -0.1500
   24 C24       8.0725     7.6983     1.5931 C.ar   1 <0>       0.1400
   25 F25       9.2045     8.4302     1.6829 F      1 <0>      -0.1200
   26 C26       7.1142     7.7793     2.5892 C.ar   1 <0>      -0.1500
   27 C27       5.9543     7.0340     2.4936 C.ar   1 <0>      -0.0600
   28 C28       2.2014     5.4112     0.6085 C.3    1 <0>       0.0100
   29 N29       1.1369     1.9198     0.0015 N.am   1 <0>      -0.6200
   30 H30      -2.1771     1.3888     0.0401 H      1 <0>       0.1700
   31 H31      -1.5014     6.0127     0.0470 H      1 <0>       0.1400
   32 H32      -3.6317     7.2449     0.0856 H      1 <0>       0.1600
   33 H33      -5.8143     3.7158     0.1178 H      1 <0>       0.1700
   34 H34      -3.7607     2.3596     0.0742 H      1 <0>       0.1400
   35 H35       3.0994     3.2044    -1.8804 H      1 <0>       0.1000
   36 H36       2.1256     4.6872    -2.0428 H      1 <0>       0.1000
   37 H37       4.9588     4.5012    -0.9183 H      1 <0>       0.0900
   38 H38       4.4944     5.1910    -2.4930 H      1 <0>       0.1200
   39 H39       4.8093     6.9743    -0.7980 H      1 <0>       0.1300
   40 H40       3.1159     6.8981    -1.3392 H      1 <0>       0.1400
   41 H41       4.1338     5.1447     2.3098 H      1 <0>       0.1400
   42 H42       4.6981     4.4615     0.7661 H      1 <0>       0.1400
   43 H43       6.5525     5.4704    -0.4353 H      1 <0>       0.1400
   44 H44       8.6165     6.8026    -0.2728 H      1 <0>       0.1500
   45 H45       7.2716     8.4272     3.4388 H      1 <0>       0.1500
   46 H46       5.2065     7.0973     3.2703 H      1 <0>       0.1400
   47 H47       1.4533     5.9556     0.0322 H      1 <0>       0.1500
   48 H48       1.8576     5.3018     1.6371 H      1 <0>       0.1400
   49 H49       1.9876     1.4541    -0.0131 H      1 <0>       0.4200
@<TRIPOS>BOND
   1    1    2 2
   2    2   29 am
   3    2    3 1
   4    3    4 2
   5    3   30 1
   6    4    5 1
   7    4   11 1
   8    5   10 ar
   9    5    6 ar
  10    6    7 ar
  11    6   31 1
  12    7    8 ar
  13    7   32 1
  14    8    9 ar
  15    9   10 ar
  16    9   33 1
  17   10   34 1
  18   11   12 2
  19   12   13 1
  20   12   29 1
  21   13   14 1
  22   13   28 1
  23   13   15 1
  24   15   16 1
  25   15   35 1
  26   15   36 1
  27   16   17 1
  28   16   37 1
  29   16   38 1
  30   17   18 1
  31   17   39 1
  32   17   40 1
  33   18   19 1
  34   18   20 1
  35   18   28 1
  36   20   21 1
  37   20   41 1
  38   20   42 1
  39   21   27 ar
  40   21   22 ar
  41   22   23 ar
  42   22   43 1
  43   23   24 ar
  44   23   44 1
  45   24   25 1
  46   24   26 ar
  47   26   27 ar
  48   26   45 1
  49   27   46 1
  50   28   47 1
  51   28   48 1
  52   29   49 1

@<TRIPOS>MOLECULE
ZINC000019334058
  48   51    0    0    0
SMALL
USER_CHARGES
NO_NAME
@<TRIPOS>ATOM
    1 O1        0.0021    -0.0041     0.0020 O.2    1 <0>      -0.5300
    2 C2       -0.0145     1.2158     0.0087 C.2    1 <0>       0.5200
    3 C3       -1.2354     1.9174     0.0301 C.2    1 <0>      -0.2800
    4 C4       -1.1989     3.3002     0.0374 C.2    1 <0>       0.2200
    5 C5       -2.4598     4.0802     0.0602 C.ar   1 <0>      -0.0200
    6 C6       -2.4396     5.4780     0.0620 C.ar   1 <0>      -0.1300
    7 C7       -3.6370     6.1649     0.0837 C.ar   1 <0>       0.1000
    8 N8       -4.7872     5.5200     0.1025 N.ar   1 <0>      -0.4700
    9 C9       -4.8505     4.2028     0.1016 C.ar   1 <0>       0.1000
   10 C10      -3.7014     3.4380     0.0747 C.ar   1 <0>      -0.1500
   11 N11      -0.0129     3.9316     0.0240 N.2    1 <0>      -0.5300
   12 C12       1.1096     3.2675     0.0043 C.2    1 <0>       0.4100
   13 C13       2.4109     4.0273    -0.0099 C.3    1 <0>      -0.0400
   14 H14       3.1578     3.4806     0.5657 H      1 <0>       0.1100
   15 C15       2.8943     4.1862    -1.4541 C.3    1 <0>      -0.1100
   16 C16       4.1847     5.0105    -1.4643 C.3    1 <0>      -0.1100
   17 C17       3.9235     6.3663    -0.8043 C.3    1 <0>       0.0500
   18 N18       3.4640     6.1602     0.5751 N.3    1 <0>      -0.5400
   19 C19       3.3357     7.4404     1.2841 C.3    1 <0>       0.1000
   20 C20       4.6986     8.0619     1.4492 C.ar   1 <0>      -0.0900
   21 C21       5.4572     7.7758     2.5690 C.ar   1 <0>      -0.0700
   22 C22       6.7071     8.3451     2.7215 C.ar   1 <0>      -0.1500
   23 C23       7.1999     9.2022     1.7520 C.ar   1 <0>       0.1000
   24 F24       8.4219     9.7590     1.8998 F      1 <0>      -0.1400
   25 C25       6.4394     9.4877     0.6307 C.ar   1 <0>      -0.1500
   26 C26       5.1917     8.9133     0.4781 C.ar   1 <0>      -0.0900
   27 C27       2.2013     5.4112     0.6088 C.3    1 <0>       0.0800
   28 N28       1.1369     1.9198     0.0015 N.am   1 <0>      -0.6300
   29 H29      -2.1771     1.3888     0.0401 H      1 <0>       0.1600
   30 H30      -1.5014     6.0127     0.0470 H      1 <0>       0.1500
   31 H31      -3.6317     7.2449     0.0856 H      1 <0>       0.1600
   32 H32      -5.8143     3.7158     0.1178 H      1 <0>       0.1600
   33 H33      -3.7607     2.3596     0.0742 H      1 <0>       0.1400
   34 H34       3.0865     3.2033    -1.8841 H      1 <0>       0.0700
   35 H35       2.1305     4.6980    -2.0396 H      1 <0>       0.0700
   36 H36       4.9598     4.4799    -0.9114 H      1 <0>       0.0800
   37 H37       4.5107     5.1633    -2.4931 H      1 <0>       0.0800
   38 H38       4.8439     6.9501    -0.7971 H      1 <0>       0.0800
   39 H39       3.1581     6.9021    -1.3658 H      1 <0>       0.0400
   40 H40       2.6975     8.1116     0.7094 H      1 <0>       0.0500
   41 H41       2.8930     7.2695     2.2653 H      1 <0>       0.0900
   42 H42       5.0727     7.1073     3.3250 H      1 <0>       0.1300
   43 H43       7.2993     8.1220     3.5967 H      1 <0>       0.1400
   44 H44       6.8226    10.1563    -0.1260 H      1 <0>       0.1400
   45 H45       4.5986     9.1356    -0.3967 H      1 <0>       0.1300
   46 H46       1.4436     5.9511     0.0408 H      1 <0>       0.0600
   47 H47       1.8713     5.3020     1.6419 H      1 <0>       0.0800
   48 H48       1.9876     1.4541    -0.0131 H      1 <0>       0.4200
@<TRIPOS>BOND
   1    1    2 2
   2    2   28 am
   3    2    3 1
   4    3    4 2
   5    3   29 1
   6    4    5 1
   7    4   11 1
   8    5   10 ar
   9    5    6 ar
  10    6    7 ar
  11    6   30 1
  12    7    8 ar
  13    7   31 1
  14    8    9 ar
  15    9   10 ar
  16    9   32 1
  17   10   33 1
  18   11   12 2
  19   12   13 1
  20   12   28 1
  21   13   14 1
  22   13   27 1
  23   13   15 1
  24   15   16 1
  25   15   34 1
  26   15   35 1
  27   16   17 1
  28   16   36 1
  29   16   37 1
  30   17   18 1
  31   17   38 1
  32   17   39 1
  33   18   19 1
  34   18   27 1
  35   19   20 1
  36   19   40 1
  37   19   41 1
  38   20   26 ar
  39   20   21 ar
  40   21   22 ar
  41   21   42 1
  42   22   23 ar
  43   22   43 1
  44   23   24 1
  45   23   25 ar
  46   25   26 ar
  47   25   44 1
  48   26   45 1
  49   27   46 1
  50   27   47 1
  51   28   48 1

@<TRIPOS>MOLECULE
ZINC000019334058
  47   50    0    0    0
SMALL
USER_CHARGES
NO_NAME
@<TRIPOS>ATOM
    1 O1        0.0021    -0.0041     0.0020 O.2    1 <0>      -0.6200
    2 C2       -0.0145     1.2158     0.0087 C.2    1 <0>       0.4900
    3 C3       -1.2354     1.9174     0.0301 C.2    1 <0>      -0.3500
    4 C4       -1.1989     3.3002     0.0374 C.2    1 <0>       0.1800
    5 C5       -2.4598     4.0802     0.0602 C.ar   1 <0>       0.0200
    6 C6       -2.4396     5.4780     0.0620 C.ar   1 <0>      -0.1400
    7 C7       -3.6370     6.1649     0.0837 C.ar   1 <0>       0.0800
    8 N8       -4.7872     5.5200     0.1025 N.ar   1 <0>      -0.5000
    9 C9       -4.8505     4.2028     0.1016 C.ar   1 <0>       0.0900
   10 C10      -3.7014     3.4380     0.0747 C.ar   1 <0>      -0.1600
   11 N11      -0.0129     3.9316     0.0240 N.2    1 <0>      -0.6100
   12 C12       1.1096     3.2675     0.0043 C.2    1 <0>       0.3500
   13 C13       2.4109     4.0273    -0.0099 C.3    1 <0>       0.0000
   14 H14       3.1410     3.4873    -0.6128 H      1 <0>       0.0900
   15 C15       2.1839     5.4189    -0.6071 C.3    1 <0>      -0.1000
   16 C16       3.4970     6.2052    -0.5626 C.3    1 <0>      -0.1200
   17 C17       3.9891     6.2855     0.8843 C.3    1 <0>       0.0500
   18 N18       4.1918     4.9293     1.4097 N.3    1 <0>      -0.5300
   19 C19       4.7952     4.9682     2.7485 C.3    1 <0>       0.0900
   20 C20       6.1910     5.5285     2.6544 C.ar   1 <0>      -0.0800
   21 C21       7.2626     4.6812     2.4426 C.ar   1 <0>      -0.0700
   22 C22       8.5430     5.1939     2.3562 C.ar   1 <0>      -0.1500
   23 C23       8.7523     6.5569     2.4812 C.ar   1 <0>       0.0900
   24 F24      10.0035     7.0593     2.3964 F      1 <0>      -0.1400
   25 C25       7.6782     7.4046     2.6928 C.ar   1 <0>      -0.1600
   26 C26       6.3981     6.8901     2.7741 C.ar   1 <0>      -0.0900
   27 C27       2.9350     4.1699     1.4208 C.3    1 <0>       0.0800
   28 N28       1.1369     1.9198     0.0015 N.pl3  1 <0>      -0.6500
   29 H29      -2.1771     1.3888     0.0401 H      1 <0>       0.1100
   30 H30      -1.5014     6.0127     0.0470 H      1 <0>       0.1400
   31 H31      -3.6317     7.2449     0.0856 H      1 <0>       0.1500
   32 H32      -5.8143     3.7158     0.1178 H      1 <0>       0.1500
   33 H33      -3.7607     2.3596     0.0742 H      1 <0>       0.1400
   34 H34       1.8522     5.3219    -1.6408 H      1 <0>       0.0600
   35 H35       1.4248     5.9444    -0.0277 H      1 <0>       0.0700
   36 H36       4.2448     5.6997    -1.1738 H      1 <0>       0.0700
   37 H37       3.3318     7.2116    -0.9472 H      1 <0>       0.0600
   38 H38       4.9313     6.8325     0.9176 H      1 <0>       0.0700
   39 H39       3.2471     6.8033     1.4920 H      1 <0>       0.0300
   40 H40       4.1928     5.6010     3.4003 H      1 <0>       0.0400
   41 H41       4.8357     3.9589     3.1582 H      1 <0>       0.0900
   42 H42       7.0991     3.6181     2.3451 H      1 <0>       0.1400
   43 H43       9.3801     4.5317     2.1915 H      1 <0>       0.1300
   44 H44       7.8403     8.4679     2.7908 H      1 <0>       0.1300
   45 H45       5.5601     7.5512     2.9388 H      1 <0>       0.1300
   46 H46       2.1974     4.6972     2.0259 H      1 <0>       0.0300
   47 H47       3.1118     3.1811     1.8440 H      1 <0>       0.0800
@<TRIPOS>BOND
   1    1    2 2
   2    2   28 1
   3    2    3 1
   4    3    4 2
   5    3   29 1
   6    4    5 1
   7    4   11 1
   8    5   10 ar
   9    5    6 ar
  10    6    7 ar
  11    6   30 1
  12    7    8 ar
  13    7   31 1
  14    8    9 ar
  15    9   10 ar
  16    9   32 1
  17   10   33 1
  18   11   12 2
  19   12   13 1
  20   12   28 1
  21   13   14 1
  22   13   27 1
  23   13   15 1
  24   15   16 1
  25   15   34 1
  26   15   35 1
  27   16   17 1
  28   16   36 1
  29   16   37 1
  30   17   18 1
  31   17   38 1
  32   17   39 1
  33   18   19 1
  34   18   27 1
  35   19   20 1
  36   19   40 1
  37   19   41 1
  38   20   26 ar
  39   20   21 ar
  40   21   22 ar
  41   21   42 1
  42   22   23 ar
  43   22   43 1
  44   23   24 1
  45   23   25 ar
  46   25   26 ar
  47   25   44 1
  48   26   45 1
  49   27   46 1
  50   27   47 1
@<TRIPOS>MOLECULE
ZINC000003204159
28    30    1     0     0
SMALL
USER_CHARGES
@<TRIPOS>ATOM
1      C1     -0.0184    1.5028    0.0103 C.3      1 ZINC000003204159   -0.1100
2      C2      0.0021   -0.0041    0.0020 C.2      1 ZINC000003204159    0.2000
3      C3     -1.1715   -0.7013    0.0038 C.2      1 ZINC000003204159   -0.3000
4      C4     -1.1276   -2.1065   -0.0045 C.2      1 ZINC000003204159    0.5300
5      O5     -2.1575   -2.7607   -0.0036 O.2      1 ZINC000003204159   -0.5400
6      N6      0.0760   -2.7182   -0.0140 N.am     1 ZINC000003204159   -0.6200
7      C7      1.2143   -1.9705   -0.0153 C.2      1 ZINC000003204159    0.3700
8      S8      2.7806   -2.7774   -0.0277 S.3      1 ZINC000003204159    0.0300
9      C9      3.8763   -1.3368   -0.0248 C.3      1 ZINC000003204159   -0.0200
10     C10     5.3113   -1.7970   -0.0345 C.2      1 ZINC000003204159    0.0900
11     C11     6.0636   -2.0486    1.0503 C.2      1 ZINC000003204159   -0.0100
12     Br12    5.5160   -1.8892    2.8533 Br       1 ZINC000003204159    0.0400
13     N13     7.3188   -2.4476    0.6035 N.pl3    1 ZINC000003204159   -0.4000
14     C14     8.5295   -2.8412    1.1271 C.2      1 ZINC000003204159    0.0300
15     C15     9.5104   -3.1486    0.2970 C.2      1 ZINC000003204159   -0.1800
16     S16     8.8469   -2.9206   -1.3308 S.3      1 ZINC000003204159    0.1900
17     C17     7.2516   -2.4136   -0.7558 C.2      1 ZINC000003204159    0.1800
18     N18     6.0529   -2.0308   -1.1272 N.2      1 ZINC000003204159   -0.4300
19     N19     1.1639   -0.6523   -0.0126 N.2      1 ZINC000003204159   -0.5400
20     H20     1.0042    1.8801    0.0026 H        1 ZINC000003204159    0.0800
21     H21    -0.5455    1.8639   -0.8728 H        1 ZINC000003204159    0.0900
22     H22    -0.5286    1.8543    0.9071 H        1 ZINC000003204159    0.0900
23     H23    -2.1184   -0.1819    0.0118 H        1 ZINC000003204159    0.1600
24     H24     0.1298   -3.6867   -0.0195 H        1 ZINC000003204159    0.4200
25     H25     3.6829   -0.7314   -0.9103 H        1 ZINC000003204159    0.1300
26     H26     3.6917   -0.7417    0.8696 H        1 ZINC000003204159    0.1300
27     H27     8.6750   -2.8973    2.1958 H        1 ZINC000003204159    0.1800
28     H28    10.5080   -3.4711    0.5562 H        1 ZINC000003204159    0.2200
@<TRIPOS>BOND
1     1     2     1
2     1     20    1
3     1     21    1
4     1     22    1
5     2     19    1
6     2     3     2
7     3     4     1
8     3     23    1
9     4     5     2
10    4     6     am
11    6     7     1
12    6     24    1
13    7     8     1
14    7     19    2
15    8     9     1
16    9     10    1
17    9     25    1
18    9     26    1
19    10    18    1
20    10    11    2
21    11    12    1
22    11    13    1
23    13    17    1
24    13    14    1
25    14    15    2
26    14    27    1
27    15    16    1
28    15    28    1
29    16    17    1
30    17    18    2
@<TRIPOS>SUBSTRUCTURE
1   ZINC000003204159 1     RESIDUE    1   A     ZIN   1

@<TRIPOS>MOLECULE
ZINC000003204159
27    29    1     0     0
SMALL
USER_CHARGES
@<TRIPOS>ATOM
1      C1     -0.0184    1.5028    0.0103 C.3      1 ZINC000003204159   -0.0900
2      C2      0.0021   -0.0041    0.0020 C.2      1 ZINC000003204159    0.1700
3      C3     -1.1715   -0.7013    0.0038 C.2      1 ZINC000003204159   -0.3800
4      C4     -1.1276   -2.1065   -0.0045 C.2      1 ZINC000003204159    0.5000
5      O5     -2.1575   -2.7607   -0.0036 O.2      1 ZINC000003204159   -0.6200
6      N6      0.0760   -2.7182   -0.0140 N.pl3    1 ZINC000003204159   -0.6400
7      C7      1.2143   -1.9705   -0.0153 C.2      1 ZINC000003204159    0.3300
8      S8      2.7806   -2.7774   -0.0277 S.3      1 ZINC000003204159   -0.0200
9      C9      3.8763   -1.3368   -0.0248 C.3      1 ZINC000003204159   -0.0300
10     C10     5.3113   -1.7970   -0.0345 C.2      1 ZINC000003204159    0.1200
11     C11     6.0636   -2.0486    1.0503 C.2      1 ZINC000003204159   -0.0200
12     Br12    5.5160   -1.8892    2.8533 Br       1 ZINC000003204159    0.0400
13     N13     7.3188   -2.4476    0.6035 N.pl3    1 ZINC000003204159   -0.4100
14     C14     8.5295   -2.8412    1.1271 C.2      1 ZINC000003204159    0.0400
15     C15     9.5104   -3.1486    0.2970 C.2      1 ZINC000003204159   -0.2000
16     S16     8.8469   -2.9206   -1.3308 S.3      1 ZINC000003204159    0.1700
17     C17     7.2516   -2.4136   -0.7558 C.2      1 ZINC000003204159    0.1700
18     N18     6.0529   -2.0308   -1.1272 N.2      1 ZINC000003204159   -0.4300
19     N19     1.1639   -0.6523   -0.0126 N.2      1 ZINC000003204159   -0.6300
20     H20     1.0042    1.8801    0.0026 H        1 ZINC000003204159    0.0600
21     H21    -0.5455    1.8639   -0.8728 H        1 ZINC000003204159    0.0600
22     H22    -0.5286    1.8543    0.9071 H        1 ZINC000003204159    0.0600
23     H23    -2.1184   -0.1819    0.0118 H        1 ZINC000003204159    0.1100
24     H24     3.6829   -0.7314   -0.9103 H        1 ZINC000003204159    0.1200
25     H25     3.6917   -0.7417    0.8696 H        1 ZINC000003204159    0.1100
26     H26     8.6750   -2.8973    2.1958 H        1 ZINC000003204159    0.1800
27     H27    10.5080   -3.4711    0.5562 H        1 ZINC000003204159    0.2100
@<TRIPOS>BOND
1     1     2     1
2     1     20    1
3     1     21    1
4     1     22    1
5     2     19    1
6     2     3     2
7     3     4     1
8     3     23    1
9     4     5     2
10    4     6     1
11    6     7     1
12    7     8     1
13    7     19    2
14    8     9     1
15    9     10    1
16    9     24    1
17    9     25    1
18    10    18    1
19    10    11    2
20    11    12    1
21    11    13    1
22    13    17    1
23    13    14    1
24    14    15    2
25    14    26    1
26    15    16    1
27    15    27    1
28    16    17    1
29    17    18    2
@<TRIPOS>SUBSTRUCTURE
1   ZINC000003204159 1     RESIDUE    1   A     ZIN   1
@<TRIPOS>MOLECULE
ZINC000022514453
  37   38    0    0    0
SMALL
USER_CHARGES
NO_NAME
@<TRIPOS>ATOM
    1 C1       -0.1252     1.4673    -0.5842 C.3    1 <0>       0.0900
    2 N2       -0.1563     0.0026    -0.5800 N.am   1 <0>      -0.6200
    3 C3        0.9159    -0.7547    -1.2306 C.3    1 <0>       0.0700
    4 C4       -1.1712    -0.6481     0.0225 C.2    1 <0>       0.5600
    5 O5       -2.1136    -0.0237     0.4690 O.2    1 <0>      -0.5300
    6 C6       -1.1382    -2.1217     0.1403 C.ar   1 <0>      -0.1100
    7 C7        0.0752    -2.7809     0.3434 C.ar   1 <0>      -0.1000
    8 C8        0.1036    -4.1565     0.4525 C.ar   1 <0>      -0.1000
    9 C9       -1.0667    -4.8860     0.3615 C.ar   1 <0>      -0.1300
   10 C10      -2.2805    -4.2390     0.1593 C.ar   1 <0>       0.1300
   11 N11      -3.4608    -4.9809     0.0675 N.am   1 <0>      -1.0500
   12 S12      -3.7588    -6.1998     1.1482 S.o2   1 <0>       2.7000
   13 O13      -5.0346    -6.7290     0.8144 O.2    1 <0>      -0.9400
   14 O14      -2.5785    -6.9895     1.1979 O.2    1 <0>      -0.9400
   15 C15      -3.9283    -5.4579     2.7374 C.ar   1 <0>      -0.6600
   16 C16      -2.8174    -5.2866     3.5419 C.ar   1 <0>       0.0000
   17 C17      -2.9499    -4.7046     4.7900 C.ar   1 <0>      -0.0400
   18 Cl18     -1.5546    -4.4896     5.8003 Cl     1 <0>      -0.0400
   19 C19      -4.1944    -4.2935     5.2326 C.ar   1 <0>      -0.0400
   20 C20      -5.3057    -4.4648     4.4269 C.ar   1 <0>      -0.0400
   21 Cl21     -6.8678    -3.9488     4.9813 Cl     1 <0>      -0.0400
   22 C22      -5.1711    -5.0422     3.1768 C.ar   1 <0>       0.0000
   23 C23      -2.3203    -2.8572     0.0545 C.ar   1 <0>      -0.0700
   24 H24       0.7635     1.8103    -1.1140 H      1 <0>       0.0800
   25 H25      -1.0158     1.8482    -1.0841 H      1 <0>       0.0600
   26 H26      -0.1001     1.8331     0.4422 H      1 <0>       0.0600
   27 H27       1.7469    -0.8777    -0.5361 H      1 <0>       0.0600
   28 H28       0.5409    -1.7347    -1.5258 H      1 <0>       0.0800
   29 H29       1.2574    -0.2151    -2.1140 H      1 <0>       0.0700
   30 H30       0.9921    -2.2145     0.4147 H      1 <0>       0.1400
   31 H31       1.0436    -4.6646     0.6093 H      1 <0>       0.1400
   32 H32      -1.0382    -5.9622     0.4473 H      1 <0>       0.1600
   33 H33      -4.1057    -4.7821    -0.6292 H      1 <0>       0.4300
   34 H34      -1.8458    -5.6076     3.1962 H      1 <0>       0.1600
   35 H35      -4.2983    -3.8394     6.2070 H      1 <0>       0.1600
   36 H36      -6.0386    -5.1756     2.5475 H      1 <0>       0.1600
   37 H37      -3.2623    -2.3525    -0.1022 H      1 <0>       0.1400
@<TRIPOS>BOND
   1    1    2 1
   2    1   24 1
   3    1   25 1
   4    1   26 1
   5    2    3 1
   6    2    4 am
   7    3   27 1
   8    3   28 1
   9    3   29 1
  10    4    5 2
  11    4    6 1
  12    6   23 ar
  13    6    7 ar
  14    7    8 ar
  15    7   30 1
  16    8    9 ar
  17    8   31 1
  18    9   10 ar
  19    9   32 1
  20   10   11 1
  21   10   23 ar
  22   11   12 am
  23   11   33 1
  24   12   13 2
  25   12   14 2
  26   12   15 1
  27   15   22 ar
  28   15   16 ar
  29   16   17 ar
  30   16   34 1
  31   17   18 1
  32   17   19 ar
  33   19   20 ar
  34   19   35 1
  35   20   21 1
  36   20   22 ar
  37   22   36 1
  38   23   37 1

@<TRIPOS>MOLECULE
ZINC000022514453
  36   37    0    0    0
SMALL
USER_CHARGES
NO_NAME
@<TRIPOS>ATOM
    1 C1       -0.0841     1.5332    -2.5364 C.3    1 <0>       0.0900
    2 N2       -0.5447     0.1518    -2.3762 N.am   1 <0>      -0.6200
    3 C3       -1.0638    -0.5858    -3.5307 C.3    1 <0>       0.0800
    4 C4       -0.4910    -0.4406    -1.1668 C.2    1 <0>       0.5700
    5 O5       -0.1574     0.2013    -0.1900 O.2    1 <0>      -0.5500
    6 C6       -0.8379    -1.8712    -1.0282 C.ar   1 <0>      -0.1000
    7 C7       -1.4066    -2.3423     0.1562 C.ar   1 <0>      -0.1600
    8 C8       -1.7290    -3.6783     0.2834 C.ar   1 <0>      -0.0700
    9 C9       -1.4909    -4.5538    -0.7590 C.ar   1 <0>      -0.2400
   10 C10      -0.9248    -4.0948    -1.9429 C.ar   1 <0>       0.2700
   11 N11      -0.6856    -4.9839    -2.9936 N.pl3  1 <0>      -1.0900
   12 S12      -1.0763    -6.5847    -2.8289 S.o2   1 <0>       2.6000
   13 O13      -0.2123    -7.1079    -1.8294 O.2    1 <0>      -1.0200
   14 O14      -2.4933    -6.6449    -2.7405 O.2    1 <0>      -1.0200
   15 C15      -0.6374    -7.3864    -4.3353 C.ar   1 <0>      -0.5900
   16 C16      -1.5559    -7.4740    -5.3644 C.ar   1 <0>      -0.0100
   17 C17      -1.2120    -8.1038    -6.5474 C.ar   1 <0>      -0.0500
   18 Cl18     -2.3658    -8.2137    -7.8398 Cl     1 <0>      -0.0600
   19 C19       0.0516    -8.6455    -6.7002 C.ar   1 <0>      -0.0700
   20 C20       0.9707    -8.5571    -5.6701 C.ar   1 <0>      -0.0500
   21 Cl21      2.5569    -9.2362    -5.8612 Cl     1 <0>      -0.0600
   22 C22       0.6273    -7.9225    -4.4896 C.ar   1 <0>      -0.0100
   23 C23      -0.6030    -2.7535    -2.0828 C.ar   1 <0>      -0.1600
   24 H24      -0.9169     2.2158    -2.3675 H      1 <0>       0.0500
   25 H25       0.7063     1.7387    -1.8144 H      1 <0>       0.0700
   26 H26       0.3012     1.6730    -3.5464 H      1 <0>       0.0700
   27 H27      -1.4529     0.1180    -4.2665 H      1 <0>       0.0600
   28 H28      -0.2612    -1.1723    -3.9779 H      1 <0>       0.0700
   29 H29      -1.8635    -1.2518    -3.2067 H      1 <0>       0.0800
   30 H30      -1.5940    -1.6614     0.9733 H      1 <0>       0.1100
   31 H31      -2.1687    -4.0407     1.2009 H      1 <0>       0.1100
   32 H32      -1.7450    -5.5982    -0.6534 H      1 <0>       0.1000
   33 H33      -2.5425    -7.0510    -5.2450 H      1 <0>       0.1500
   34 H34       0.3204    -9.1375    -7.6233 H      1 <0>       0.1500
   35 H35       1.3448    -7.8532    -3.6854 H      1 <0>       0.1500
   36 H36      -0.1636    -2.3947    -3.0018 H      1 <0>       0.1300
@<TRIPOS>BOND
   1    1    2 1
   2    1   24 1
   3    1   25 1
   4    1   26 1
   5    2    3 1
   6    2    4 am
   7    3   27 1
   8    3   28 1
   9    3   29 1
  10    4    5 2
  11    4    6 1
  12    6   23 ar
  13    6    7 ar
  14    7    8 ar
  15    7   30 1
  16    8    9 ar
  17    8   31 1
  18    9   10 ar
  19    9   32 1
  20   10   11 1
  21   10   23 ar
  22   11   12 1
  23   12   13 2
  24   12   14 2
  25   12   15 1
  26   15   22 ar
  27   15   16 ar
  28   16   17 ar
  29   16   33 1
  30   17   18 1
  31   17   19 ar
  32   19   20 ar
  33   19   34 1
  34   20   21 1
  35   20   22 ar
  36   22   35 1
  37   23   36 1
@<TRIPOS>MOLECULE
ZINC000026187741
42    45    1     0     0
SMALL
USER_CHARGES
@<TRIPOS>ATOM
1      O1      0.0021   -0.0041    0.0020 O.2      1 ZINC000026187741   -0.4400
2      C2     -0.0144    1.2135    0.0087 C.2      1 ZINC000026187741    0.5800
3      N3      1.1435    1.9032    0.0014 N.am     1 ZINC000026187741   -0.6300
4      C4      2.3561    1.2249   -0.0139 C.2      1 ZINC000026187741    0.2500
5      N5      2.5133   -0.0675   -0.0280 N.2      1 ZINC000026187741   -0.2600
6      N6      3.6928   -0.5132   -0.0406 N.2      1 ZINC000026187741   -0.2300
7      C7      4.6641    0.3416   -0.0387 C.2      1 ZINC000026187741    0.0400
8      C8      6.1349    0.0135   -0.0529 C.3      1 ZINC000026187741    0.0000
9      C9      6.4848   -0.8141    1.1855 C.3      1 ZINC000026187741   -0.1100
10     C10     7.9780   -1.1472    1.1711 C.3      1 ZINC000026187741   -0.1200
11     C11     8.3094   -1.9495   -0.0888 C.3      1 ZINC000026187741   -0.1200
12     C12     7.9595   -1.1219   -1.3272 C.3      1 ZINC000026187741   -0.1200
13     C13     6.4663   -0.7888   -1.3128 C.3      1 ZINC000026187741   -0.1100
14     S14     3.9606    1.9601   -0.0252 S.3      1 ZINC000026187741    0.0600
15     C15    -1.2518    1.9057    0.0183 C.2      1 ZINC000026187741   -0.3100
16     C16    -2.4939    1.3185    0.0266 C.2      1 ZINC000026187741    0.2200
17     N17    -2.6932   -0.0660    0.0264 N.pl3    1 ZINC000026187741   -0.4000
18     C18    -2.1022   -0.9558   -0.8251 C.2      1 ZINC000026187741    0.0400
19     C19    -2.5425   -2.1918   -0.5146 C.2      1 ZINC000026187741   -0.2000
20     C20    -3.4374   -2.0632    0.5670 C.2      1 ZINC000026187741   -0.1800
21     C21    -3.5066   -0.7538    0.8816 C.2      1 ZINC000026187741   -0.0200
22     C22    -3.5253    2.2369    0.0358 C.2      1 ZINC000026187741   -0.1500
23     C23    -3.1437    3.5171    0.0351 C.2      1 ZINC000026187741   -0.1900
24     S24    -1.4434    3.6533    0.0294 S.3      1 ZINC000026187741    0.2400
25     H25     1.1303    2.8731    0.0067 H        1 ZINC000026187741    0.4200
26     H26     6.7133    0.9374   -0.0478 H        1 ZINC000026187741    0.0900
27     H27     6.2487   -0.2425    2.0831 H        1 ZINC000026187741    0.0700
28     H28     5.9064   -1.7379    1.1804 H        1 ZINC000026187741    0.0800
29     H29     8.5564   -0.2233    1.1761 H        1 ZINC000026187741    0.0600
30     H30     8.2273   -1.7368    2.0533 H        1 ZINC000026187741    0.0700
31     H31     9.3732   -2.1868   -0.0991 H        1 ZINC000026187741    0.0600
32     H32     7.7310   -2.8734   -0.0939 H        1 ZINC000026187741    0.0700
33     H33     8.5380   -0.1981   -1.3221 H        1 ZINC000026187741    0.0600
34     H34     8.1956   -1.6935   -2.2248 H        1 ZINC000026187741    0.0700
35     H35     5.8879   -1.7127   -1.3179 H        1 ZINC000026187741    0.0800
36     H36     6.2170   -0.1992   -2.1950 H        1 ZINC000026187741    0.0700
37     H37    -1.4032   -0.7114   -1.6112 H        1 ZINC000026187741    0.1600
38     H38    -2.2613   -3.1121   -1.0051 H        1 ZINC000026187741    0.1400
39     H39    -3.9670   -2.8668    1.0570 H        1 ZINC000026187741    0.1400
40     H40    -4.1072   -0.3225    1.6688 H        1 ZINC000026187741    0.1600
41     H41    -4.5641    1.9417    0.0427 H        1 ZINC000026187741    0.1600
42     H42    -3.8232    4.3565    0.0413 H        1 ZINC000026187741    0.1900
@<TRIPOS>BOND
1     1     2     2
2     2     3     am
3     2     15    1
4     3     4     1
5     3     25    1
6     4     14    1
7     4     5     2
8     5     6     1
9     6     7     2
10    7     8     1
11    7     14    1
12    8     13    1
13    8     9     1
14    8     26    1
15    9     10    1
16    9     27    1
17    9     28    1
18    10    11    1
19    10    29    1
20    10    30    1
21    11    12    1
22    11    31    1
23    11    32    1
24    12    13    1
25    12    33    1
26    12    34    1
27    13    35    1
28    13    36    1
29    15    24    1
30    15    16    2
31    16    17    1
32    16    22    1
33    17    21    1
34    17    18    1
35    18    19    2
36    18    37    1
37    19    20    1
38    19    38    1
39    20    21    2
40    20    39    1
41    21    40    1
42    22    23    2
43    22    41    1
44    23    24    1
45    23    42    1
@<TRIPOS>SUBSTRUCTURE
1   ZINC000026187741 1     RESIDUE    1   A     ZIN   1
@<TRIPOS>MOLECULE
ZINC000028227707
  37   38    0    0    0
SMALL
USER_CHARGES
NO_NAME
@<TRIPOS>ATOM
    1 C1       -4.2956     1.7232    -1.2353 C.3    1 <0>      -0.1800
    2 C2       -2.8784     1.5879    -0.6748 C.3    1 <0>       0.1100
    3 N3       -2.6385     0.1965    -0.2842 N.pl3  1 <0>      -0.2500
    4 N4       -2.7993    -0.2786     0.8982 N.2    1 <0>      -0.2600
    5 C5       -2.5052    -1.5530     0.9349 C.2    1 <0>       0.0400
    6 C6       -2.1158    -1.9407    -0.3502 C.2    1 <0>      -0.1600
    7 Br7      -1.5769    -3.6632    -0.9145 Br     1 <0>       0.0100
    8 C8       -2.2148    -0.7957    -1.1240 C.2    1 <0>       0.0000
    9 C9       -1.9153    -0.6706    -2.5578 C.2    1 <0>       0.6000
   10 O10      -2.7892    -0.8664    -3.3811 O.2    1 <0>      -0.4700
   11 N11      -0.6725    -0.3391    -2.9601 N.am   1 <0>      -0.6100
   12 C12      -0.4152    -0.1143    -4.3062 C.2    1 <0>       0.2300
   13 N13       0.7414     0.2035    -4.7983 N.2    1 <0>      -0.4900
   14 C14       0.8066     0.3808    -6.1047 C.2    1 <0>       0.1100
   15 C15       2.0837     0.7518    -6.8135 C.3    1 <0>       0.0100
   16 C16       2.0354     2.2282    -7.2120 C.3    1 <0>      -0.1400
   17 C17       3.2726     0.5140    -5.8803 C.3    1 <0>      -0.1300
   18 C18       2.2396    -0.1102    -8.0680 C.3    1 <0>      -0.1400
   19 C19      -0.3497     0.2044    -6.7469 C.2    1 <0>      -0.3000
   20 S20      -1.5760    -0.2235    -5.5567 S.3    1 <0>       0.2400
   21 H21      -4.4741     2.7584    -1.5259 H      1 <0>       0.0900
   22 H22      -4.4050     1.0772    -2.1064 H      1 <0>       0.0700
   23 H23      -5.0173     1.4302    -0.4728 H      1 <0>       0.0700
   24 H24      -2.1566     1.8809    -1.4373 H      1 <0>       0.1000
   25 H25      -2.7690     2.2339     0.1963 H      1 <0>       0.1200
   26 H26      -2.5541    -2.1919     1.8043 H      1 <0>       0.2000
   27 H27       0.0423    -0.2575    -2.3095 H      1 <0>       0.4300
   28 H28       1.9243     2.8423    -6.3183 H      1 <0>       0.0600
   29 H29       2.9591     2.4966    -7.7247 H      1 <0>       0.0600
   30 H30       1.1884     2.3976    -7.8768 H      1 <0>       0.0600
   31 H31       3.3070    -0.5378    -5.5964 H      1 <0>       0.0600
   32 H32       4.1963     0.7824    -6.3930 H      1 <0>       0.0600
   33 H33       3.1615     1.1281    -4.9866 H      1 <0>       0.0600
   34 H34       1.3926     0.0592    -8.7328 H      1 <0>       0.0600
   35 H35       3.1633     0.1582    -8.5807 H      1 <0>       0.0700
   36 H36       2.2740    -1.1620    -7.7841 H      1 <0>       0.0600
   37 H37      -0.5057     0.3030    -7.8110 H      1 <0>       0.1800
@<TRIPOS>BOND
   1    1    2 1
   2    1   21 1
   3    1   22 1
   4    1   23 1
   5    2    3 1
   6    2   24 1
   7    2   25 1
   8    3    8 1
   9    3    4 1
  10    4    5 2
  11    5    6 1
  12    5   26 1
  13    6    7 1
  14    6    8 2
  15    8    9 1
  16    9   10 2
  17    9   11 am
  18   11   12 1
  19   11   27 1
  20   12   20 1
  21   12   13 2
  22   13   14 1
  23   14   15 1
  24   14   19 2
  25   15   16 1
  26   15   17 1
  27   15   18 1
  28   16   28 1
  29   16   29 1
  30   16   30 1
  31   17   31 1
  32   17   32 1
  33   17   33 1
  34   18   34 1
  35   18   35 1
  36   18   36 1
  37   19   20 1
  38   19   37 1
@<TRIPOS>MOLECULE
ZINC000037575598
33    34    1     0     0
SMALL
USER_CHARGES
@<TRIPOS>ATOM
1      C1     -0.0184    1.5028    0.0103 C.3      1 ZINC000037575598   -0.1000
2      C2      0.0021   -0.0041    0.0020 C.ar     1 ZINC000037575598    0.2100
3      C3      0.0060   -0.6989   -1.1973 C.ar     1 ZINC000037575598   -0.3400
4      C4      0.0255   -2.0843   -1.1603 C.ar     1 ZINC000037575598    0.2000
5      C5      0.0309   -2.8813   -2.4393 C.3      1 ZINC000037575598   -0.1000
6      N6      0.0397   -2.6984    0.0111 N.ar     1 ZINC000037575598   -0.5500
7      C7      0.0354   -2.0044    1.1397 C.ar     1 ZINC000037575598    0.6000
8      N8      0.0511   -2.6793    2.3480 N.pl3    1 ZINC000037575598   -1.0500
9      S9      0.0461   -1.8312    3.7703 S.o2     1 ZINC000037575598    2.6400
10     O10     1.2865   -1.1403    3.8298 O.2      1 ZINC000037575598   -1.0200
11     O11    -1.2127   -1.1760    3.8424 O.2      1 ZINC000037575598   -1.0100
12     C12     0.0695   -3.0094    5.0802 C.ar     1 ZINC000037575598   -0.6300
13     C13     1.1571   -3.0761    5.9302 C.ar     1 ZINC000037575598    0.0000
14     C14     1.1752   -4.0009    6.9589 C.ar     1 ZINC000037575598   -0.1200
15     Br15    2.6629   -4.0922    8.1227 Br       1 ZINC000037575598   -0.0600
16     C16     0.1046   -4.8584    7.1362 C.ar     1 ZINC000037575598   -0.0500
17     C17    -0.9829   -4.7910    6.2855 C.ar     1 ZINC000037575598   -0.1400
18     C18    -1.0028   -3.8633    5.2610 C.ar     1 ZINC000037575598    0.0400
19     C19    -2.1888   -3.7900    4.3342 C.3      1 ZINC000037575598   -0.1500
20     N20     0.0220   -0.6795    1.1391 N.ar     1 ZINC000037575598   -0.6200
21     H21     1.0042    1.8801    0.0026 H        1 ZINC000037575598    0.0700
22     H22    -0.5455    1.8639   -0.8728 H        1 ZINC000037575598    0.0700
23     H23    -0.5286    1.8543    0.9071 H        1 ZINC000037575598    0.0700
24     H24    -0.0062   -0.1722   -2.1401 H        1 ZINC000037575598    0.1200
25     H25     1.0598   -3.0591   -2.7522 H        1 ZINC000037575598    0.0700
26     H26    -0.4689   -3.8359   -2.2747 H        1 ZINC000037575598    0.0700
27     H27    -0.4942   -2.3254   -3.2161 H        1 ZINC000037575598    0.0700
28     H28     1.9931   -2.4065    5.7911 H        1 ZINC000037575598    0.1500
29     H29     0.1185   -5.5808    7.9389 H        1 ZINC000037575598    0.1300
30     H30    -1.8188   -5.4608    6.4236 H        1 ZINC000037575598    0.1400
31     H31    -2.9217   -3.0907    4.7366 H        1 ZINC000037575598    0.0900
32     H32    -1.8618   -3.4484    3.3521 H        1 ZINC000037575598    0.1000
33     H33    -2.6407   -4.7777    4.2434 H        1 ZINC000037575598    0.0700
@<TRIPOS>BOND
1     1     2     1
2     1     21    1
3     1     22    1
4     1     23    1
5     2     20    ar
6     2     3     ar
7     3     4     ar
8     3     24    1
9     4     5     1
10    4     6     ar
11    5     25    1
12    5     26    1
13    5     27    1
14    6     7     ar
15    7     8     1
16    7     20    ar
17    8     9     1
18    9     10    2
19    9     11    2
20    9     12    1
21    12    18    ar
22    12    13    ar
23    13    14    ar
24    13    28    1
25    14    15    1
26    14    16    ar
27    16    17    ar
28    16    29    1
29    17    18    ar
30    17    30    1
31    18    19    1
32    19    31    1
33    19    32    1
34    19    33    1
@<TRIPOS>SUBSTRUCTURE
1   ZINC000037575598 1     RESIDUE    1   A     ZIN   1

@<TRIPOS>MOLECULE
ZINC000037575598
34    35    1     0     0
SMALL
USER_CHARGES
@<TRIPOS>ATOM
1      C1     -3.2265   -5.2797    4.3490 C.3      1 ZINC000037575598   -0.1100
2      C2     -2.5926   -4.6933    3.1140 C.ar     1 ZINC000037575598    0.2200
3      C3     -3.0454   -5.0538    1.8545 C.ar     1 ZINC000037575598   -0.2600
4      C4     -2.4352   -4.4907    0.7447 C.ar     1 ZINC000037575598    0.2100
5      C5     -2.8947   -4.8528   -0.6441 C.3      1 ZINC000037575598   -0.1100
6      N6     -1.4448   -3.6314    0.9194 N.ar     1 ZINC000037575598   -0.5400
7      C7     -1.0358   -3.3079    2.1374 C.ar     1 ZINC000037575598    0.5600
8      N8      0.0029   -2.4050    2.2836 N.am     1 ZINC000037575598   -1.0200
9      S9      0.2888   -1.7031    3.7560 S.o2     1 ZINC000037575598    2.7000
10     O10     0.3507   -2.7630    4.7005 O.2      1 ZINC000037575598   -0.9100
11     O11     1.3464   -0.7746    3.5594 O.2      1 ZINC000037575598   -0.9400
12     C12    -1.1373   -0.7533    4.1668 C.ar     1 ZINC000037575598   -0.6700
13     C13    -1.9084   -1.1020    5.2593 C.ar     1 ZINC000037575598    0.0300
14     C14    -3.0279   -0.3559    5.5820 C.ar     1 ZINC000037575598   -0.1200
15     Br15   -4.0831   -0.8321    7.0772 Br       1 ZINC000037575598   -0.0300
16     C16    -3.3747    0.7386    4.8110 C.ar     1 ZINC000037575598   -0.0300
17     C17    -2.6028    1.0866    3.7183 C.ar     1 ZINC000037575598   -0.1400
18     C18    -1.4815    0.3441    3.3993 C.ar     1 ZINC000037575598    0.0300
19     C19    -0.6400    0.7241    2.2083 C.3      1 ZINC000037575598   -0.1500
20     N20    -1.6010   -3.8242    3.2188 N.ar     1 ZINC000037575598   -0.5500
21     H21    -3.9998   -4.6048    4.7159 H        1 ZINC000037575598    0.0900
22     H22    -3.6718   -6.2444    4.1058 H        1 ZINC000037575598    0.0900
23     H23    -2.4664   -5.4141    5.1186 H        1 ZINC000037575598    0.0900
24     H24    -3.8559   -5.7584    1.7404 H        1 ZINC000037575598    0.1500
25     H25    -3.6807   -4.1658   -0.9574 H        1 ZINC000037575598    0.0900
26     H26    -2.0543   -4.7827   -1.3347 H        1 ZINC000037575598    0.0900
27     H27    -3.2813   -5.8719   -0.6447 H        1 ZINC000037575598    0.0900
28     H28     0.5635   -2.1832    1.5236 H        1 ZINC000037575598    0.4400
29     H29    -1.6373   -1.9569    5.8609 H        1 ZINC000037575598    0.1600
30     H30    -4.2488    1.3211    5.0623 H        1 ZINC000037575598    0.1400
31     H31    -2.8738    1.9411    3.1159 H        1 ZINC000037575598    0.1400
32     H32     0.1941    1.3446    2.5359 H        1 ZINC000037575598    0.1100
33     H33    -0.2566   -0.1780    1.7316 H        1 ZINC000037575598    0.0700
34     H34    -1.2490    1.2807    1.4959 H        1 ZINC000037575598    0.0900
@<TRIPOS>BOND
1     1     2     1
2     1     21    1
3     1     22    1
4     1     23    1
5     2     20    ar
6     2     3     ar
7     3     4     ar
8     3     24    1
9     4     5     1
10    4     6     ar
11    5     25    1
12    5     26    1
13    5     27    1
14    6     7     ar
15    7     8     1
16    7     20    ar
17    8     9     am
18    8     28    1
19    9     10    2
20    9     11    2
21    9     12    1
22    12    18    ar
23    12    13    ar
24    13    14    ar
25    13    29    1
26    14    15    1
27    14    16    ar
28    16    17    ar
29    16    30    1
30    17    18    ar
31    17    31    1
32    18    19    1
33    19    32    1
34    19    33    1
35    19    34    1
@<TRIPOS>SUBSTRUCTURE
1   ZINC000037575598 1     RESIDUE    1   A     ZIN   1
@<TRIPOS>MOLECULE
ZINC000037574628
32    33    1     0     0
SMALL
USER_CHARGES
@<TRIPOS>ATOM
1      C1     -0.0187    1.5258    0.0104 C.3      1 ZINC000037574628   -0.1500
2      C2      0.0021   -0.0041    0.0020 C.3      1 ZINC000037574628    0.1700
3      C3      0.7421   -0.5109    1.2415 C.3      1 ZINC000037574628   -0.1500
4      N4     -1.3723   -0.5112    0.0124 N.pl3    1 ZINC000037574628   -0.3900
5      N5     -2.3339   -0.2655    1.0007 N.2      1 ZINC000037574628   -0.3600
6      C6     -3.4376   -0.8830    0.6654 C.2      1 ZINC000037574628    0.0700
7      C7     -3.2204   -1.5439   -0.5469 C.2      1 ZINC000037574628   -0.4400
8      C8     -1.9387   -1.2945   -0.9335 C.2      1 ZINC000037574628    0.4400
9      N9     -1.3208   -1.7677   -2.0877 N.pl3    1 ZINC000037574628   -1.0900
10     S10    -2.1600   -2.7324   -3.1401 S.o2     1 ZINC000037574628    2.6300
11     O11    -2.4165   -3.9489   -2.4520 O.2      1 ZINC000037574628   -1.0200
12     O12    -3.1869   -1.9221   -3.6954 O.2      1 ZINC000037574628   -1.0000
13     C13    -1.0693   -3.1308   -4.4654 C.ar     1 ZINC000037574628   -0.6100
14     C14    -0.6773   -4.4406   -4.6671 C.ar     1 ZINC000037574628    0.0000
15     C15     0.1783   -4.7545   -5.7064 C.ar     1 ZINC000037574628   -0.1700
16     C16     0.6430   -3.7564   -6.5458 C.ar     1 ZINC000037574628    0.1400
17     F17     1.4789   -4.0626   -7.5620 F        1 ZINC000037574628   -0.1300
18     C18     0.2501   -2.4442   -6.3434 C.ar     1 ZINC000037574628   -0.1600
19     C19    -0.6103   -2.1330   -5.3067 C.ar     1 ZINC000037574628    0.0300
20     Br20   -1.1474   -0.3412   -5.0295 Br       1 ZINC000037574628    0.0000
21     H21     1.0039    1.9031    0.0027 H        1 ZINC000037574628    0.0600
22     H22    -0.5459    1.8868   -0.8726 H        1 ZINC000037574628    0.0500
23     H23    -0.5289    1.8773    0.9072 H        1 ZINC000037574628    0.0600
24     H24     0.5123   -0.3556   -0.8948 H        1 ZINC000037574628    0.1000
25     H25     0.7568   -1.6008    1.2356 H        1 ZINC000037574628    0.0600
26     H26     1.7647   -0.1336    1.2338 H        1 ZINC000037574628    0.0600
27     H27     0.2319   -0.1594    2.1383 H        1 ZINC000037574628    0.0600
28     H28    -4.3589   -0.8823    1.2289 H        1 ZINC000037574628    0.1600
29     H29    -3.9418   -2.1423   -1.0835 H        1 ZINC000037574628    0.1200
30     H30    -1.0394   -5.2194   -4.0123 H        1 ZINC000037574628    0.1600
31     H31     0.4845   -5.7782   -5.8634 H        1 ZINC000037574628    0.1500
32     H32     0.6121   -1.6648   -6.9976 H        1 ZINC000037574628    0.1500
@<TRIPOS>BOND
1     1     2     1
2     1     21    1
3     1     22    1
4     1     23    1
5     2     3     1
6     2     4     1
7     2     24    1
8     3     25    1
9     3     26    1
10    3     27    1
11    4     8     1
12    4     5     1
13    5     6     2
14    6     7     1
15    6     28    1
16    7     8     2
17    7     29    1
18    8     9     1
19    9     10    1
20    10    11    2
21    10    12    2
22    10    13    1
23    13    19    ar
24    13    14    ar
25    14    15    ar
26    14    30    1
27    15    16    ar
28    15    31    1
29    16    17    1
30    16    18    ar
31    18    19    ar
32    18    32    1
33    19    20    1
@<TRIPOS>SUBSTRUCTURE
1   ZINC000037574628 1     RESIDUE    1   A     ZIN   1

@<TRIPOS>MOLECULE
ZINC000037574628
33    34    1     0     0
SMALL
USER_CHARGES
@<TRIPOS>ATOM
1      C1      0.1592    1.6400    0.2491 C.3      1 ZINC000037574628   -0.1600
2      C2      0.2251    0.1117    0.2184 C.3      1 ZINC000037574628    0.1500
3      C3      1.0710   -0.3384   -0.9744 C.3      1 ZINC000037574628   -0.1600
4      N4      0.8323   -0.3758    1.4594 N.pl3    1 ZINC000037574628   -0.3700
5      N5      2.1157   -0.0653    1.9263 N.2      1 ZINC000037574628   -0.2800
6      C6      2.3024   -0.6852    3.0634 C.2      1 ZINC000037574628    0.0800
7      C7      1.1467   -1.4122    3.3624 C.2      1 ZINC000037574628   -0.3200
8      C8      0.2503   -1.2007    2.3595 C.2      1 ZINC000037574628    0.3300
9      N9     -1.0290   -1.7425    2.2718 N.am     1 ZINC000037574628   -1.0300
10     S10    -1.5335   -2.8588    3.3862 S.o2     1 ZINC000037574628    2.7000
11     O11    -1.2612   -2.3010    4.6644 O.2      1 ZINC000037574628   -0.9200
12     O12    -2.8303   -3.2738    2.9795 O.2      1 ZINC000037574628   -0.9200
13     C13    -0.4869   -4.2670    3.2246 C.ar     1 ZINC000037574628   -0.6700
14     C14     0.3320   -4.6427    4.2726 C.ar     1 ZINC000037574628    0.0200
15     C15     1.1536   -5.7472    4.1470 C.ar     1 ZINC000037574628   -0.1600
16     C16     1.1562   -6.4777    2.9710 C.ar     1 ZINC000037574628    0.1700
17     F17     1.9586   -7.5576    2.8479 F        1 ZINC000037574628   -0.1200
18     C18     0.3357   -6.1011    1.9212 C.ar     1 ZINC000037574628   -0.1500
19     C19    -0.4896   -4.9993    2.0507 C.ar     1 ZINC000037574628    0.0300
20     Br20   -1.6106   -4.4841    0.6176 Br       1 ZINC000037574628   -0.0100
21     H21     1.1665    2.0453    0.3444 H        1 ZINC000037574628    0.0800
22     H22    -0.2925    2.0028   -0.6742 H        1 ZINC000037574628    0.0800
23     H23    -0.4434    1.9607    1.0988 H        1 ZINC000037574628    0.0600
24     H24    -0.7822   -0.2936    0.1231 H        1 ZINC000037574628    0.0900
25     H25     2.0783    0.0669   -0.8790 H        1 ZINC000037574628    0.0700
26     H26     1.1180   -1.4272   -0.9962 H        1 ZINC000037574628    0.0600
27     H27     0.6193    0.0243   -1.8977 H        1 ZINC000037574628    0.0800
28     H28     3.1966   -0.6423    3.6676 H        1 ZINC000037574628    0.1900
29     H29     0.9910   -2.0286    4.2355 H        1 ZINC000037574628    0.1600
30     H30    -1.6248   -1.4663    1.5580 H        1 ZINC000037574628    0.4300
31     H31     0.3304   -4.0727    5.1899 H        1 ZINC000037574628    0.1700
32     H32     1.7936   -6.0401    4.9662 H        1 ZINC000037574628    0.1600
33     H33     0.3370   -6.6703    1.0034 H        1 ZINC000037574628    0.1600
@<TRIPOS>BOND
1     1     2     1
2     1     21    1
3     1     22    1
4     1     23    1
5     2     3     1
6     2     4     1
7     2     24    1
8     3     25    1
9     3     26    1
10    3     27    1
11    4     8     1
12    4     5     1
13    5     6     2
14    6     7     1
15    6     28    1
16    7     8     2
17    7     29    1
18    8     9     1
19    9     10    am
20    9     30    1
21    10    11    2
22    10    12    2
23    10    13    1
24    13    19    ar
25    13    14    ar
26    14    15    ar
27    14    31    1
28    15    16    ar
29    15    32    1
30    16    17    1
31    16    18    ar
32    18    19    ar
33    18    33    1
34    19    20    1
@<TRIPOS>SUBSTRUCTURE
1   ZINC000037574628 1     RESIDUE    1   A     ZIN   1
@<TRIPOS>MOLECULE
ZINC000037840477
  30   31    0    0    0
SMALL
USER_CHARGES
NO_NAME
@<TRIPOS>ATOM
    1 C1       -0.0178     1.4608     0.0101 C.3    1 <0>       0.0800
    2 N2        0.0021    -0.0041     0.0020 N.am   1 <0>      -1.0000
    3 C3        0.0241    -0.7433     1.2666 C.3    1 <0>       0.2000
    4 C4       -1.3844    -0.9091     1.7762 C.2    1 <0>      -0.2100
    5 C5       -2.1886    -1.9351     1.4932 C.2    1 <0>      -0.0900
    6 C6       -3.4426    -1.8716     2.0769 C.2    1 <0>      -0.1100
    7 Br7      -4.7528    -3.2110     1.8213 Br     1 <0>      -0.0200
    8 C8       -3.6561    -0.7937     2.8339 C.2    1 <0>      -0.1800
    9 S9       -2.2164     0.2167     2.8409 S.3    1 <0>       0.1500
   10 S10      -0.0004    -0.8243    -1.4366 S.o2   1 <0>       2.7100
   11 O11      -0.5247    -2.1160    -1.1611 O.2    1 <0>      -0.9400
   12 O12      -0.5660     0.0551    -2.3989 O.2    1 <0>      -0.9500
   13 C13       1.6816    -1.0597    -1.9056 C.2    1 <0>      -0.7900
   14 C14       2.2208    -0.3079    -2.8935 C.2    1 <0>       0.2700
   15 N15       3.5152    -0.4781    -3.2663 N.am   1 <0>      -0.6000
   16 C16       4.2906    -1.3978    -2.6613 C.2    1 <0>       0.5200
   17 O17       5.4527    -1.5388    -3.0074 O.2    1 <0>      -0.5300
   18 C18       3.7628    -2.1952    -1.6315 C.2    1 <0>      -0.2400
   19 C19       2.4641    -2.0219    -1.2520 C.2    1 <0>       0.0400
   20 H20       1.0048     1.8381     0.0023 H      1 <0>       0.0600
   21 H21      -0.5450     1.8219    -0.8730 H      1 <0>       0.0900
   22 H22      -0.5280     1.8123     0.9069 H      1 <0>       0.0800
   23 H23       0.4703    -1.7247     1.1061 H      1 <0>       0.1100
   24 H24       0.6131    -0.1919     1.9996 H      1 <0>       0.1000
   25 H25      -1.8848    -2.7531     0.8567 H      1 <0>       0.1600
   26 H26      -4.5713    -0.5772     3.3649 H      1 <0>       0.1800
   27 H27       1.6149     0.4351    -3.3908 H      1 <0>       0.1900
   28 H28       3.8854     0.0689    -3.9767 H      1 <0>       0.4200
   29 H29       4.3800    -2.9347    -1.1430 H      1 <0>       0.1600
   30 H30       2.0410    -2.6250    -0.4623 H      1 <0>       0.1500
@<TRIPOS>BOND
   1    1    2 1
   2    1   20 1
   3    1   21 1
   4    1   22 1
   5    2    3 1
   6    2   10 am
   7    3    4 1
   8    3   23 1
   9    3   24 1
  10    4    9 1
  11    4    5 2
  12    5    6 1
  13    5   25 1
  14    6    7 1
  15    6    8 2
  16    8    9 1
  17    8   26 1
  18   10   11 2
  19   10   12 2
  20   10   13 1
  21   13   19 1
  22   13   14 2
  23   14   15 1
  24   14   27 1
  25   15   16 am
  26   15   28 1
  27   16   17 2
  28   16   18 1
  29   18   19 2
  30   18   29 1
  31   19   30 1
@<TRIPOS>MOLECULE
ZINC000040155178
  37   39    0    0    0
SMALL
USER_CHARGES
NO_NAME
@<TRIPOS>ATOM
    1 C1       -3.9210    -8.3010     2.7747 C.3    1 <0>      -0.1300
    2 C2       -2.9367    -7.3934     2.0830 C.ar   1 <0>      -0.0100
    3 C3       -3.0792    -6.0217     2.1746 C.ar   1 <0>      -0.1400
    4 C4       -2.1762    -5.1884     1.5407 C.ar   1 <0>       0.0000
    5 C5       -1.1308    -5.7266     0.8147 C.ar   1 <0>      -0.6800
    6 S6        0.0199    -4.6645     0.0070 S.o2   1 <0>       2.6900
    7 O7        0.1403    -5.1428    -1.3257 O.2    1 <0>      -0.9300
    8 O8       -0.3704    -3.3353     0.3234 O.2    1 <0>      -0.9400
    9 N9        1.4935    -4.9024     0.7240 N.am   1 <0>      -1.0500
   10 C10       1.6622    -4.6249     2.0836 C.ar   1 <0>       0.1600
   11 C11       1.1620    -3.4448     2.6187 C.ar   1 <0>      -0.1300
   12 C12       1.3286    -3.1696     3.9616 C.ar   1 <0>      -0.0700
   13 C13       1.9954    -4.0720     4.7780 C.ar   1 <0>       0.1300
   14 N14       2.1640    -3.7918     6.1431 N.pl3  1 <0>      -0.3300
   15 C15       2.7949    -4.5772     7.0444 C.2    1 <0>       0.0500
   16 C16       2.7406    -3.9529     8.2443 C.2    1 <0>      -0.2600
   17 C17       2.0542    -2.7465     8.0714 C.2    1 <0>       0.0600
   18 N18       1.7134    -2.6460     6.8114 N.2    1 <0>      -0.2900
   19 C19       2.4964    -5.2543     4.2436 C.ar   1 <0>       0.1000
   20 F20       3.1458    -6.1332     5.0380 F      1 <0>      -0.1300
   21 C21       2.3251    -5.5320     2.9007 C.ar   1 <0>      -0.1300
   22 C22      -0.9875    -7.0999     0.7227 C.ar   1 <0>       0.0600
   23 Cl23      0.3259    -7.7768    -0.1887 Cl     1 <0>      -0.0400
   24 C24      -1.8880    -7.9330     1.3618 C.ar   1 <0>      -0.1300
   25 H25      -3.5730    -8.5111     3.7860 H      1 <0>       0.0800
   26 H26      -4.8950    -7.8137     2.8195 H      1 <0>       0.0800
   27 H27      -4.0071    -9.2346     2.2188 H      1 <0>       0.0800
   28 H28      -3.8965    -5.6006     2.7413 H      1 <0>       0.1400
   29 H29      -2.2881    -4.1166     1.6127 H      1 <0>       0.1600
   30 H30       2.2397    -5.2344     0.2006 H      1 <0>       0.4300
   31 H31       0.6428    -2.7418     1.9841 H      1 <0>       0.1700
   32 H32       0.9399    -2.2514     4.3767 H      1 <0>       0.1600
   33 H33       3.2589    -5.5314     6.8433 H      1 <0>       0.1900
   34 H34       3.1542    -4.3213     9.1714 H      1 <0>       0.1600
   35 H35       1.8456    -2.0206     8.8434 H      1 <0>       0.1900
   36 H36       2.7138    -6.4498     2.4849 H      1 <0>       0.1500
   37 H37      -1.7767    -9.0049     1.2903 H      1 <0>       0.1500
@<TRIPOS>BOND
   1    1    2 1
   2    1   25 1
   3    1   26 1
   4    1   27 1
   5    2   24 ar
   6    2    3 ar
   7    3    4 ar
   8    3   28 1
   9    4    5 ar
  10    4   29 1
  11    5    6 1
  12    5   22 ar
  13    6    7 2
  14    6    8 2
  15    6    9 am
  16    9   10 1
  17    9   30 1
  18   10   21 ar
  19   10   11 ar
  20   11   12 ar
  21   11   31 1
  22   12   13 ar
  23   12   32 1
  24   13   14 1
  25   13   19 ar
  26   14   18 1
  27   14   15 1
  28   15   16 2
  29   15   33 1
  30   16   17 1
  31   16   34 1
  32   17   18 2
  33   17   35 1
  34   19   20 1
  35   19   21 ar
  36   21   36 1
  37   22   23 1
  38   22   24 ar
  39   24   37 1

@<TRIPOS>MOLECULE
ZINC000040155178
  36   38    0    0    0
SMALL
USER_CHARGES
NO_NAME
@<TRIPOS>ATOM
    1 C1       -0.0184     1.5028     0.0103 C.3    1 <0>      -0.1200
    2 C2        0.0021    -0.0041     0.0020 C.ar   1 <0>      -0.0400
    3 C3        0.0058    -0.6884    -1.1988 C.ar   1 <0>      -0.1500
    4 C4        0.0250    -2.0709    -1.2073 C.ar   1 <0>      -0.0200
    5 C5        0.0400    -2.7693    -0.0149 C.ar   1 <0>      -0.6200
    6 S6        0.0645    -4.5311    -0.0258 S.o2   1 <0>       2.6100
    7 O7       -0.9473    -4.9520     0.8788 O.2    1 <0>      -1.0100
    8 O8        0.0986    -4.9234    -1.3911 O.2    1 <0>      -1.0200
    9 N9        1.5078    -5.0054     0.6332 N.pl3  1 <0>      -1.0700
   10 C10       1.8076    -6.3653     0.7542 C.ar   1 <0>       0.3100
   11 C11       0.8973    -7.3187     0.3165 C.ar   1 <0>      -0.2500
   12 C12       1.1924    -8.6624     0.4360 C.ar   1 <0>      -0.0200
   13 C13       2.3990    -9.0615     0.9932 C.ar   1 <0>       0.0000
   14 N14       2.6985   -10.4276     1.1141 N.pl3  1 <0>      -0.2800
   15 C15       3.8286   -10.9507     1.6399 C.2    1 <0>       0.0400
   16 C16       3.7287   -12.2990     1.5723 C.2    1 <0>      -0.2900
   17 C17       2.4976   -12.6107     0.9861 C.2    1 <0>       0.0300
   18 N18       1.8767   -11.4901     0.7166 N.2    1 <0>      -0.3000
   19 C19       3.3116    -8.1079     1.4316 C.ar   1 <0>       0.1300
   20 F20       4.4865    -8.4960     1.9742 F      1 <0>      -0.1400
   21 C21       3.0183    -6.7631     1.3071 C.ar   1 <0>      -0.1900
   22 C22       0.0363    -2.0847     1.1877 C.ar   1 <0>       0.0600
   23 Cl23      0.0558    -2.9613     2.6859 Cl     1 <0>      -0.0300
   24 C24       0.0229    -0.7015     1.1954 C.ar   1 <0>      -0.1400
   25 H25       1.0042     1.8801     0.0026 H      1 <0>       0.0800
   26 H26      -0.5455     1.8639    -0.8728 H      1 <0>       0.0700
   27 H27      -0.5286     1.8543     0.9071 H      1 <0>       0.0700
   28 H28      -0.0067    -0.1431    -2.1310 H      1 <0>       0.1300
   29 H29       0.0279    -2.6051    -2.1459 H      1 <0>       0.1500
   30 H30      -0.0420    -7.0089    -0.1173 H      1 <0>       0.1100
   31 H31       0.4837    -9.4030     0.0960 H      1 <0>       0.1300
   32 H32       4.6616   -10.3930     2.0417 H      1 <0>       0.1800
   33 H33       4.4690   -13.0086     1.9111 H      1 <0>       0.1400
   34 H34       2.1218   -13.6048     0.7936 H      1 <0>       0.1800
   35 H35       3.7264    -6.0220     1.6472 H      1 <0>       0.1400
   36 H36       0.0200    -0.1666     2.1336 H      1 <0>       0.1400
@<TRIPOS>BOND
   1    1    2 1
   2    1   25 1
   3    1   26 1
   4    1   27 1
   5    2   24 ar
   6    2    3 ar
   7    3    4 ar
   8    3   28 1
   9    4    5 ar
  10    4   29 1
  11    5    6 1
  12    5   22 ar
  13    6    7 2
  14    6    8 2
  15    6    9 1
  16    9   10 1
  17   10   21 ar
  18   10   11 ar
  19   11   12 ar
  20   11   30 1
  21   12   13 ar
  22   12   31 1
  23   13   14 1
  24   13   19 ar
  25   14   18 1
  26   14   15 1
  27   15   16 2
  28   15   32 1
  29   16   17 1
  30   16   33 1
  31   17   18 2
  32   17   34 1
  33   19   20 1
  34   19   21 ar
  35   21   35 1
  36   22   23 1
  37   22   24 ar
  38   24   36 1
@<TRIPOS>MOLECULE
ZINC000049492935
29    31    1     0     0
SMALL
USER_CHARGES
@<TRIPOS>ATOM
1      O1      0.9347    1.9288   -0.5790 O.2      1 ZINC000049492935   -0.4600
2      C2     -0.0475    1.2150   -0.4946 C.2      1 ZINC000049492935    0.5800
3      N3      0.0725   -0.1179   -0.6539 N.am     1 ZINC000049492935   -0.6200
4      C4      1.2976   -0.6674   -1.0115 C.2      1 ZINC000049492935    0.2600
5      N5      2.4033   -0.0114   -1.2166 N.2      1 ZINC000049492935   -0.2700
6      N6      3.4268   -0.6752   -1.5359 N.2      1 ZINC000049492935   -0.2300
7      C7      3.3090   -1.9596   -1.6378 C.2      1 ZINC000049492935    0.0000
8      S8      1.6369   -2.3812   -1.2623 S.3      1 ZINC000049492935    0.0700
9      C9     -1.3597    1.8043   -0.2138 C.2      1 ZINC000049492935   -0.0500
10     C10    -2.5427    1.1161   -0.0406 C.2      1 ZINC000049492935   -0.1200
11     C11    -3.5394    2.0658    0.2056 C.2      1 ZINC000049492935   -0.2000
12     C12    -2.9629    3.2914    0.1797 C.2      1 ZINC000049492935    0.0400
13     N13    -1.6360    3.1470   -0.0685 N.pl3    1 ZINC000049492935   -0.3600
14     C14    -0.7051    4.1889   -0.1699 C.ar     1 ZINC000049492935    0.1100
15     C15     0.4187    4.1994    0.6454 C.ar     1 ZINC000049492935   -0.0500
16     C16     1.3353    5.2278    0.5429 C.ar     1 ZINC000049492935   -0.1000
17     C17     1.1346    6.2464   -0.3700 C.ar     1 ZINC000049492935   -0.0700
18     C18     0.0155    6.2393   -1.1837 C.ar     1 ZINC000049492935   -0.1000
19     I19    -0.2838    7.7854   -2.5653 I        1 ZINC000049492935   -0.0300
20     C20    -0.9015    5.2102   -1.0901 C.ar     1 ZINC000049492935   -0.0800
21     H21    -0.6964   -0.6937   -0.5188 H        1 ZINC000049492935    0.4300
22     H22     4.0952   -2.6513   -1.9022 H        1 ZINC000049492935    0.2200
23     H23    -2.6745    0.0452   -0.0870 H        1 ZINC000049492935    0.1500
24     H24    -4.5842    1.8587    0.3845 H        1 ZINC000049492935    0.1500
25     H25    -3.4744    4.2297    0.3357 H        1 ZINC000049492935    0.1800
26     H26     0.5759    3.4044    1.3593 H        1 ZINC000049492935    0.1300
27     H27     2.2096    5.2362    1.1769 H        1 ZINC000049492935    0.1400
28     H28     1.8525    7.0495   -0.4479 H        1 ZINC000049492935    0.1400
29     H29    -1.7747    5.2047   -1.7256 H        1 ZINC000049492935    0.1400
@<TRIPOS>BOND
1     1     2     2
2     2     3     am
3     2     9     1
4     3     4     1
5     3     21    1
6     4     8     1
7     4     5     2
8     5     6     1
9     6     7     2
10    7     8     1
11    7     22    1
12    9     13    1
13    9     10    2
14    10    11    1
15    10    23    1
16    11    12    2
17    11    24    1
18    12    13    1
19    12    25    1
20    13    14    1
21    14    20    ar
22    14    15    ar
23    15    16    ar
24    15    26    1
25    16    17    ar
26    16    27    1
27    17    18    ar
28    17    28    1
29    18    19    1
30    18    20    ar
31    20    29    1
@<TRIPOS>SUBSTRUCTURE
1   ZINC000049492935 1     RESIDUE    1   A     ZIN   1
@<TRIPOS>MOLECULE
ZINC000051036881
32    34    1     0     0
SMALL
USER_CHARGES
@<TRIPOS>ATOM
1      C1     -0.0187    1.5258    0.0104 C.3      1 ZINC000051036881   -0.1400
2      C2      0.0021   -0.0041    0.0020 C.3      1 ZINC000051036881   -0.1500
3      H3      0.5293   -0.3651    0.8851 H        1 ZINC000051036881    0.1300
4      S4     -1.6960   -0.6306    0.0149 S.3      1 ZINC000051036881    0.0600
5      C5     -2.2218   -0.0569    1.5957 C.ar     1 ZINC000051036881    0.2100
6      C6     -3.5216   -0.3215    2.0612 C.ar     1 ZINC000051036881   -0.0400
7      N7     -4.5981   -0.9737    1.5609 N.2      1 ZINC000051036881   -0.4600
8      C8     -5.5738   -0.9228    2.4208 C.2      1 ZINC000051036881    0.2800
9      N9     -5.1819   -0.2325    3.5291 N.pl3    1 ZINC000051036881   -0.5800
10     C10    -3.8830    0.1619    3.3300 C.ar     1 ZINC000051036881    0.2900
11     N11    -2.9909    0.8465    4.0386 N.ar     1 ZINC000051036881   -0.5200
12     C12    -1.7843    1.0709    3.5620 C.ar     1 ZINC000051036881    0.3300
13     N13    -1.3965    0.6318    2.3788 N.ar     1 ZINC000051036881   -0.5300
14     C14     0.7074   -0.4901   -1.2379 C.2      1 ZINC000051036881    0.4200
15     O15     0.0665   -0.7818   -2.2251 O.2      1 ZINC000051036881   -0.4300
16     C16     2.1735   -0.6106   -1.2506 C.ar     1 ZINC000051036881   -0.1500
17     C17     2.9158   -0.2805   -0.1117 C.ar     1 ZINC000051036881   -0.0700
18     C18     4.2891   -0.3959   -0.1310 C.ar     1 ZINC000051036881   -0.1000
19     C19     4.9345   -0.8371   -1.2746 C.ar     1 ZINC000051036881   -0.0600
20     Br20    6.8191   -0.9920   -1.2909 Br       1 ZINC000051036881   -0.0400
21     C21     4.2061   -1.1659   -2.4062 C.ar     1 ZINC000051036881   -0.1000
22     C22     2.8317   -1.0614   -2.3997 C.ar     1 ZINC000051036881   -0.0500
23     H23     1.0039    1.9031    0.0027 H        1 ZINC000051036881    0.0700
24     H24    -0.5459    1.8868   -0.8726 H        1 ZINC000051036881    0.0700
25     H25    -0.5289    1.8773    0.9072 H        1 ZINC000051036881    0.0900
26     H26    -6.5499   -1.3621    2.2773 H        1 ZINC000051036881    0.2300
27     H27    -5.7223   -0.0529    4.3143 H        1 ZINC000051036881    0.4300
28     H28    -1.0837    1.6310    4.1636 H        1 ZINC000051036881    0.2100
29     H29     2.4140    0.0643    0.7803 H        1 ZINC000051036881    0.1400
30     H30     4.8635   -0.1414    0.7475 H        1 ZINC000051036881    0.1400
31     H31     4.7161   -1.5088   -3.2943 H        1 ZINC000051036881    0.1400
32     H32     2.2651   -1.3184   -3.2824 H        1 ZINC000051036881    0.1500
@<TRIPOS>BOND
1     1     2     1
2     1     23    1
3     1     24    1
4     1     25    1
5     2     3     1
6     2     4     1
7     2     14    1
8     4     5     1
9     5     13    ar
10    5     6     ar
11    6     10    ar
12    6     7     1
13    7     8     2
14    8     9     1
15    8     26    1
16    9     10    1
17    9     27    1
18    10    11    ar
19    11    12    ar
20    12    13    ar
21    12    28    1
22    14    15    2
23    14    16    1
24    16    22    ar
25    16    17    ar
26    17    18    ar
27    17    29    1
28    18    19    ar
29    18    30    1
30    19    20    1
31    19    21    ar
32    21    22    ar
33    21    31    1
34    22    32    1
@<TRIPOS>SUBSTRUCTURE
1   ZINC000051036881 1     RESIDUE    1   A     ZIN   1
@<TRIPOS>MOLECULE
ZINC000014190801
38    40    1     0     0
SMALL
USER_CHARGES
@<TRIPOS>ATOM
1      O1     -0.7269    1.1856    2.0784 O.2      1 ZINC000014190801   -0.5200
2      C2     -0.3991    1.8450    1.1038 C.2      1 ZINC000014190801    0.5200
3      N3     -1.1807    1.8673    0.0062 N.am     1 ZINC000014190801   -0.5100
4      N4     -0.8122    2.6194   -1.1140 N.2      1 ZINC000014190801   -0.1900
5      C5      0.2906    3.3143   -1.1237 C.2      1 ZINC000014190801    0.0700
6      C6      1.1403    3.3215    0.0032 C.2      1 ZINC000014190801    0.2500
7      N7      2.3108    4.0606   -0.0093 N.pl3    1 ZINC000014190801   -0.6500
8      C8      3.6221    3.3994    0.0727 C.3      1 ZINC000014190801    0.1400
9      C9      4.5017    3.9192   -1.0693 C.3      1 ZINC000014190801    0.0400
10     N10     4.5421    5.3869   -1.0229 N.3      1 ZINC000014190801   -0.5300
11     C11     5.5097    5.9178   -1.9924 C.3      1 ZINC000014190801    0.0900
12     C12     5.7054    7.3924   -1.7508 C.ar     1 ZINC000014190801   -0.0800
13     C13     4.8977    8.3112   -2.3946 C.ar     1 ZINC000014190801   -0.1000
14     C14     5.0766    9.6637   -2.1734 C.ar     1 ZINC000014190801   -0.1100
15     C15     6.0644   10.0980   -1.3075 C.ar     1 ZINC000014190801   -0.0300
16     Cl16    6.2894   11.7967   -1.0287 Cl       1 ZINC000014190801   -0.0700
17     C17     6.8725    9.1780   -0.6634 C.ar     1 ZINC000014190801   -0.1100
18     C18     6.6888    7.8255   -0.8811 C.ar     1 ZINC000014190801   -0.0800
19     C19     3.2088    5.9639   -1.2400 C.3      1 ZINC000014190801    0.0300
20     C20     2.2764    5.5275   -0.1111 C.3      1 ZINC000014190801    0.1400
21     C21     0.7899    2.5882    1.1222 C.2      1 ZINC000014190801   -0.2000
22     Br22    1.9051    2.5764    2.6494 Br       1 ZINC000014190801    0.0200
23     H23    -2.0056    1.3572   -0.0072 H        1 ZINC000014190801    0.4400
24     H24     0.5560    3.8877   -1.9996 H        1 ZINC000014190801    0.2000
25     H25     4.0897    3.6311    1.0297 H        1 ZINC000014190801    0.0800
26     H26     3.4951    2.3212   -0.0245 H        1 ZINC000014190801    0.0800
27     H27     5.5115    3.5239   -0.9596 H        1 ZINC000014190801    0.0900
28     H28     4.0862    3.5968   -2.0241 H        1 ZINC000014190801    0.0400
29     H29     6.4622    5.4009   -1.8754 H        1 ZINC000014190801    0.0900
30     H30     5.1336    5.7621   -3.0035 H        1 ZINC000014190801    0.0500
31     H31     4.1269    7.9721   -3.0708 H        1 ZINC000014190801    0.1300
32     H32     4.4458   10.3814   -2.6767 H        1 ZINC000014190801    0.1300
33     H33     7.6439    9.5165    0.0124 H        1 ZINC000014190801    0.1300
34     H34     7.3193    7.1072   -0.3781 H        1 ZINC000014190801    0.1300
35     H35     3.2809    7.0514   -1.2540 H        1 ZINC000014190801    0.0900
36     H36     2.8113    5.6131   -2.1924 H        1 ZINC000014190801    0.0400
37     H37     1.2602    5.8573   -0.3273 H        1 ZINC000014190801    0.0800
38     H38     2.6128    5.9619    0.8303 H        1 ZINC000014190801    0.0800
@<TRIPOS>BOND
1     1     2     2
2     2     21    1
3     2     3     am
4     3     4     1
5     3     23    1
6     4     5     2
7     5     6     1
8     5     24    1
9     6     7     1
10    6     21    2
11    7     20    1
12    7     8     1
13    8     9     1
14    8     25    1
15    8     26    1
16    9     10    1
17    9     27    1
18    9     28    1
19    10    11    1
20    10    19    1
21    11    12    1
22    11    29    1
23    11    30    1
24    12    18    ar
25    12    13    ar
26    13    14    ar
27    13    31    1
28    14    15    ar
29    14    32    1
30    15    16    1
31    15    17    ar
32    17    18    ar
33    17    33    1
34    18    34    1
35    19    20    1
36    19    35    1
37    19    36    1
38    20    37    1
39    20    38    1
40    21    22    1
@<TRIPOS>SUBSTRUCTURE
1   ZINC000014190801 1     RESIDUE    1   A     ZIN   1
@<TRIPOS>MOLECULE
ZINC000063146470
39    40    1     0     0
SMALL
USER_CHARGES
@<TRIPOS>ATOM
1      C1      0.6757    1.4506    0.4454 C.3      1 ZINC000063146470   -0.1200
2      C2      0.5117   -0.0423    0.3215 C.ar     1 ZINC000063146470   -0.0900
3      C3      0.4197   -0.6247   -0.9291 C.ar     1 ZINC000063146470   -0.1000
4      C4      0.2698   -1.9927   -1.0463 C.ar     1 ZINC000063146470   -0.1700
5      C5      0.2115   -2.7836    0.0940 C.ar     1 ZINC000063146470    0.1400
6      N6      0.0604   -4.1673   -0.0209 N.am     1 ZINC000063146470   -1.0500
7      S7      0.7833   -4.9783   -1.2708 S.o2     1 ZINC000063146470    2.6900
8      O8      0.5648   -6.3618   -1.0311 O.2      1 ZINC000063146470   -0.9400
9      O9      0.3759   -4.3223   -2.4636 O.2      1 ZINC000063146470   -0.9400
10     C10     2.5198   -4.7166   -1.1272 C.ar     1 ZINC000063146470   -0.7100
11     C11     3.1090   -3.6338   -1.7525 C.ar     1 ZINC000063146470    0.0600
12     C12     4.4711   -3.4273   -1.6402 C.ar     1 ZINC000063146470   -0.1900
13     C13     5.2452   -4.3054   -0.9012 C.ar     1 ZINC000063146470    0.2500
14     F14     6.5766   -4.1043   -0.7904 F        1 ZINC000063146470   -0.1100
15     C15     4.6538   -5.3899   -0.2752 C.ar     1 ZINC000063146470   -0.7200
16     S16     5.6374   -6.5082    0.6664 S.o2     1 ZINC000063146470    2.5000
17     C17     6.7374   -7.2798   -0.5522 C.3      1 ZINC000063146470   -0.6500
18     O18     6.3760   -5.6708    1.5452 O.2      1 ZINC000063146470   -0.9200
19     O19     4.7060   -7.4567    1.1685 O.2      1 ZINC000063146470   -0.9200
20     C20     3.2912   -5.5913   -0.3845 C.ar     1 ZINC000063146470    0.1100
21     C21     0.3042   -2.1951    1.3491 C.ar     1 ZINC000063146470   -0.0900
22     C22     0.2420   -3.0493    2.5891 C.3      1 ZINC000063146470   -0.1200
23     C23     0.4593   -0.8274    1.4589 C.ar     1 ZINC000063146470   -0.1000
24     H24     1.7366    1.7007    0.4465 H        1 ZINC000063146470    0.0700
25     H25     0.1877    1.9409   -0.3970 H        1 ZINC000063146470    0.0700
26     H26     0.2214    1.7900    1.3763 H        1 ZINC000063146470    0.0700
27     H27     0.4648   -0.0091   -1.8154 H        1 ZINC000063146470    0.1300
28     H28     0.1976   -2.4470   -2.0235 H        1 ZINC000063146470    0.1600
29     H29    -0.4680   -4.6533    0.6314 H        1 ZINC000063146470    0.4300
30     H30     2.5050   -2.9491   -2.3293 H        1 ZINC000063146470    0.1600
31     H31     4.9313   -2.5814   -2.1291 H        1 ZINC000063146470    0.1600
32     H32     7.3426   -6.5115   -1.0333 H        1 ZINC000063146470    0.1300
33     H33     7.3896   -7.9953   -0.0513 H        1 ZINC000063146470    0.1400
34     H34     6.1411   -7.7964   -1.3043 H        1 ZINC000063146470    0.1400
35     H35     2.8297   -6.4370    0.1036 H        1 ZINC000063146470    0.1700
36     H36     1.2485   -3.3647    2.8640 H        1 ZINC000063146470    0.0800
37     H37    -0.1939   -2.4733    3.4055 H        1 ZINC000063146470    0.0700
38     H38    -0.3737   -3.9275    2.3949 H        1 ZINC000063146470    0.0700
39     H39     0.5318   -0.3694    2.4343 H        1 ZINC000063146470    0.1300
@<TRIPOS>BOND
1     1     2     1
2     1     24    1
3     1     25    1
4     1     26    1
5     2     23    ar
6     2     3     ar
7     3     4     ar
8     3     27    1
9     4     5     ar
10    4     28    1
11    5     6     1
12    5     21    ar
13    6     7     am
14    6     29    1
15    7     8     2
16    7     9     2
17    7     10    1
18    10    20    ar
19    10    11    ar
20    11    12    ar
21    11    30    1
22    12    13    ar
23    12    31    1
24    13    14    1
25    13    15    ar
26    15    16    1
27    15    20    ar
28    16    17    1
29    16    18    2
30    16    19    2
31    17    32    1
32    17    33    1
33    17    34    1
34    20    35    1
35    21    22    1
36    21    23    ar
37    22    36    1
38    22    37    1
39    22    38    1
40    23    39    1
@<TRIPOS>SUBSTRUCTURE
1   ZINC000063146470 1     RESIDUE    1   A     ZIN   1

@<TRIPOS>MOLECULE
ZINC000063146470
38    39    1     0     0
SMALL
USER_CHARGES
@<TRIPOS>ATOM
1      C1     -0.0184    1.5028    0.0103 C.3      1 ZINC000063146470   -0.0900
2      C2      0.0021   -0.0041    0.0020 C.ar     1 ZINC000063146470   -0.2000
3      C3      0.0058   -0.6872   -1.2001 C.ar     1 ZINC000063146470   -0.0700
4      C4      0.0249   -2.0683   -1.2113 C.ar     1 ZINC000063146470   -0.2600
5      C5      0.0405   -2.7708   -0.0132 C.ar     1 ZINC000063146470    0.2800
6      N6      0.0604   -4.1673   -0.0209 N.pl3    1 ZINC000063146470   -1.0800
7      S7      0.0654   -4.9875   -1.4596 S.o2     1 ZINC000063146470    2.6000
8      O8     -1.1910   -4.7311   -2.0719 O.2      1 ZINC000063146470   -1.0200
9      O9      1.3082   -4.6954   -2.0836 O.2      1 ZINC000063146470   -1.0200
10     C10     0.0917   -6.7077   -1.0792 C.ar     1 ZINC000063146470   -0.6400
11     C11     1.2992   -7.3636   -0.9301 C.ar     1 ZINC000063146470    0.0600
12     C12     1.3210   -8.7129   -0.6312 C.ar     1 ZINC000063146470   -0.1900
13     C13     0.1329   -9.4075   -0.4813 C.ar     1 ZINC000063146470    0.2200
14     F14     0.1531  -10.7263   -0.1888 F        1 ZINC000063146470   -0.1200
15     C15    -1.0762   -8.7493   -0.6310 C.ar     1 ZINC000063146470   -0.7200
16     S16    -2.5895   -9.6315   -0.4399 S.o2     1 ZINC000063146470    2.5000
17     C17    -2.5932  -10.8250   -1.8060 C.3      1 ZINC000063146470   -0.6500
18     O18    -2.4503  -10.3003    0.8061 O.2      1 ZINC000063146470   -0.9300
19     O19    -3.5959   -8.6474   -0.6349 O.2      1 ZINC000063146470   -0.9300
20     C20    -1.0956   -7.3992   -0.9245 C.ar     1 ZINC000063146470    0.1000
21     C21     0.0368   -2.0812    1.1929 C.ar     1 ZINC000063146470   -0.1500
22     C22     0.0541   -2.8391    2.4953 C.3      1 ZINC000063146470   -0.0800
23     C23     0.0229   -0.7004    1.1968 C.ar     1 ZINC000063146470   -0.0800
24     H24     1.0042    1.8801    0.0026 H        1 ZINC000063146470    0.0500
25     H25    -0.5455    1.8639   -0.8728 H        1 ZINC000063146470    0.0500
26     H26    -0.5286    1.8543    0.9071 H        1 ZINC000063146470    0.0500
27     H27    -0.0067   -0.1404   -2.1313 H        1 ZINC000063146470    0.1000
28     H28     0.0274   -2.6013   -2.1506 H        1 ZINC000063146470    0.1000
29     H29     2.2260   -6.8216   -1.0474 H        1 ZINC000063146470    0.1600
30     H30     2.2647   -9.2253   -0.5151 H        1 ZINC000063146470    0.1500
31     H31    -1.7264  -11.4801   -1.7185 H        1 ZINC000063146470    0.1300
32     H32    -3.5048  -11.4212   -1.7651 H        1 ZINC000063146470    0.1400
33     H33    -2.5506  -10.2909   -2.7552 H        1 ZINC000063146470    0.1400
34     H34    -2.0385   -6.8857   -1.0413 H        1 ZINC000063146470    0.1700
35     H35     1.0859   -3.0072    2.8041 H        1 ZINC000063146470    0.0500
36     H36    -0.4641   -2.2601    3.2596 H        1 ZINC000063146470    0.0400
37     H37    -0.4467   -3.7983    2.3642 H        1 ZINC000063146470    0.0700
38     H38     0.0203   -0.1637    2.1340 H        1 ZINC000063146470    0.1000
@<TRIPOS>BOND
1     1     2     1
2     1     24    1
3     1     25    1
4     1     26    1
5     2     23    ar
6     2     3     ar
7     3     4     ar
8     3     27    1
9     4     5     ar
10    4     28    1
11    5     6     1
12    5     21    ar
13    6     7     1
14    7     8     2
15    7     9     2
16    7     10    1
17    10    20    ar
18    10    11    ar
19    11    12    ar
20    11    29    1
21    12    13    ar
22    12    30    1
23    13    14    1
24    13    15    ar
25    15    16    1
26    15    20    ar
27    16    17    1
28    16    18    2
29    16    19    2
30    17    31    1
31    17    32    1
32    17    33    1
33    20    34    1
34    21    22    1
35    21    23    ar
36    22    35    1
37    22    36    1
38    22    37    1
39    23    38    1
@<TRIPOS>SUBSTRUCTURE
1   ZINC000063146470 1     RESIDUE    1   A     ZIN   1
@<TRIPOS>MOLECULE
ZINC000064668232
  43   45    0    0    0
SMALL
USER_CHARGES
NO_NAME
@<TRIPOS>ATOM
    1 C1        0.1627    -0.3515    -1.4361 C.3    1 <0>      -0.0800
    2 C2        0.0422    -1.8049    -1.0566 C.2    1 <0>       0.0800
    3 C3       -0.0769    -2.7700    -1.9734 C.2    1 <0>      -0.2500
    4 S4       -0.1900    -4.3167    -1.1361 S.3    1 <0>       0.0700
    5 C5       -0.0617    -3.4836     0.4109 C.2    1 <0>       0.1500
    6 C6       -0.0758    -4.1300     1.7332 C.2    1 <0>       0.0600
    7 C7        0.0173    -3.4966     2.9392 C.2    1 <0>      -0.0300
    8 C8       -0.0366    -4.4838     3.9345 C.2    1 <0>      -0.7500
    9 S9        0.0416    -4.2109     5.6735 S.o2   1 <0>       2.7200
   10 O10       1.0308    -5.0994     6.1750 O.2    1 <0>      -0.9500
   11 O11       0.0970    -2.8029     5.8567 O.2    1 <0>      -0.9400
   12 N12      -1.4022    -4.7093     6.3133 N.am   1 <0>      -1.0500
   13 C13      -2.5742    -4.0073     6.0228 C.ar   1 <0>       0.1700
   14 C14      -2.7088    -3.3506     4.8064 C.ar   1 <0>      -0.1700
   15 C15      -3.8694    -2.6577     4.5220 C.ar   1 <0>      -0.0900
   16 C16      -4.8965    -2.6175     5.4467 C.ar   1 <0>      -0.1400
   17 C17      -4.7656    -3.2700     6.6592 C.ar   1 <0>      -0.0900
   18 C18      -3.6104    -3.9693     6.9475 C.ar   1 <0>      -0.1100
   19 C19      -3.4687    -4.6799     8.2688 C.3    1 <0>      -0.1200
   20 C20      -0.1597    -5.6815     3.3207 C.2    1 <0>       0.1800
   21 C21      -0.2542    -7.0181     4.0103 C.3    1 <0>      -0.1300
   22 N22      -0.1907    -5.4771     1.9740 N.pl3  1 <0>      -0.4300
   23 C23      -0.3154    -6.5206     0.9534 C.3    1 <0>       0.0500
   24 N24       0.0533    -2.2019     0.1957 N.2    1 <0>      -0.4500
   25 H25       1.2143    -0.0960    -1.5663 H      1 <0>       0.0800
   26 H26      -0.3726    -0.1739    -2.3688 H      1 <0>       0.0800
   27 H27      -0.2665     0.2667    -0.6475 H      1 <0>       0.0800
   28 H28      -0.1005    -2.6266    -3.0436 H      1 <0>       0.1800
   29 H29       0.1144    -2.4327     3.0976 H      1 <0>       0.1700
   30 H30      -1.4339    -5.4887     6.8899 H      1 <0>       0.4300
   31 H31      -1.9067    -3.3813     4.0838 H      1 <0>       0.1400
   32 H32      -3.9745    -2.1465     3.5765 H      1 <0>       0.1300
   33 H33      -5.8029    -2.0750     5.2219 H      1 <0>       0.1300
   34 H34      -5.5696    -3.2360     7.3795 H      1 <0>       0.1300
   35 H35      -3.8447    -5.6988     8.1756 H      1 <0>       0.0700
   36 H36      -2.4177    -4.7055     8.5568 H      1 <0>       0.0700
   37 H37      -4.0411    -4.1496     9.0298 H      1 <0>       0.0700
   38 H38      -1.2902    -7.2105     4.2894 H      1 <0>       0.1000
   39 H39       0.0913    -7.8007     3.3348 H      1 <0>       0.0900
   40 H40       0.3677    -7.0100     4.9053 H      1 <0>       0.1100
   41 H41      -1.3697    -6.6930     0.7369 H      1 <0>       0.0900
   42 H42       0.1948    -6.2025     0.0442 H      1 <0>       0.0900
   43 H43       0.1359    -7.4428     1.3196 H      1 <0>       0.1000
@<TRIPOS>BOND
   1    1    2 1
   2    1   25 1
   3    1   26 1
   4    1   27 1
   5    2   24 1
   6    2    3 2
   7    3    4 1
   8    3   28 1
   9    4    5 1
  10    5    6 1
  11    5   24 2
  12    6   22 1
  13    6    7 2
  14    7    8 1
  15    7   29 1
  16    8    9 1
  17    8   20 2
  18    9   10 2
  19    9   11 2
  20    9   12 am
  21   12   13 1
  22   12   30 1
  23   13   18 ar
  24   13   14 ar
  25   14   15 ar
  26   14   31 1
  27   15   16 ar
  28   15   32 1
  29   16   17 ar
  30   16   33 1
  31   17   18 ar
  32   17   34 1
  33   18   19 1
  34   19   35 1
  35   19   36 1
  36   19   37 1
  37   20   21 1
  38   20   22 1
  39   21   38 1
  40   21   39 1
  41   21   40 1
  42   22   23 1
  43   23   41 1
  44   23   42 1
  45   23   43 1

@<TRIPOS>MOLECULE
ZINC000064668232
  42   44    0    0    0
SMALL
USER_CHARGES
NO_NAME
@<TRIPOS>ATOM
    1 C1       -0.0184     1.5028     0.0103 C.3    1 <0>      -0.0800
    2 C2        0.0021    -0.0041     0.0020 C.2    1 <0>       0.0800
    3 C3        0.0061    -0.7073    -1.1345 C.2    1 <0>      -0.2700
    4 S4        0.0320    -2.4210    -0.7238 S.3    1 <0>       0.0500
    5 C5        0.0350    -2.0061     0.9884 C.2    1 <0>       0.1800
    6 C6        0.0545    -2.9696     2.1009 C.2    1 <0>       0.0200
    7 C7        0.0515    -2.6623     3.4313 C.2    1 <0>      -0.0200
    8 C8        0.0747    -3.8730     4.1396 C.2    1 <0>      -0.6900
    9 S9        0.0808    -4.0511     5.8925 S.o2   1 <0>       2.6300
   10 O10       1.1195    -4.9713     6.1988 O.2    1 <0>      -1.0400
   11 O11       0.0236    -2.7368     6.4296 O.2    1 <0>      -1.0300
   12 N12      -1.3391    -4.7912     6.3150 N.pl3  1 <0>      -1.0900
   13 C13      -1.6121    -5.0637     7.6574 C.ar   1 <0>       0.2800
   14 C14      -0.6964    -4.7095     8.6398 C.ar   1 <0>      -0.2700
   15 C15      -0.9697    -4.9801     9.9664 C.ar   1 <0>      -0.0700
   16 C16      -2.1534    -5.6028    10.3169 C.ar   1 <0>      -0.2300
   17 C17      -3.0673    -5.9572     9.3411 C.ar   1 <0>      -0.0800
   18 C18      -2.8029    -5.6845     8.0136 C.ar   1 <0>      -0.1600
   19 C19      -3.7993    -6.0710     6.9511 C.3    1 <0>      -0.0800
   20 C20       0.0911    -4.8784     3.2365 C.2    1 <0>       0.1800
   21 C21       0.1176    -6.3503     3.5587 C.3    1 <0>      -0.1100
   22 N22       0.0730    -4.3379     1.9860 N.pl3  1 <0>      -0.4400
   23 C23       0.0821    -5.0904     0.7290 C.3    1 <0>       0.0600
   24 N24       0.0226    -0.7073     1.1115 N.2    1 <0>      -0.4700
   25 H25       1.0042     1.8801     0.0026 H      1 <0>       0.0800
   26 H26      -0.5455     1.8639    -0.8728 H      1 <0>       0.0700
   27 H27      -0.5286     1.8543     0.9071 H      1 <0>       0.0800
   28 H28      -0.0053    -0.2960    -2.1331 H      1 <0>       0.1800
   29 H29       0.0344    -1.6708     3.8591 H      1 <0>       0.1600
   30 H30       0.2286    -4.2235     8.3666 H      1 <0>       0.0900
   31 H31      -0.2579    -4.7053    10.7307 H      1 <0>       0.1000
   32 H32      -2.3647    -5.8132    11.3549 H      1 <0>       0.1000
   33 H33      -3.9907    -6.4441     9.6183 H      1 <0>       0.1000
   34 H34      -4.4976    -5.2494     6.7916 H      1 <0>       0.0400
   35 H35      -3.2734    -6.2866     6.0210 H      1 <0>       0.0700
   36 H36      -4.3476    -6.9567     7.2722 H      1 <0>       0.0300
   37 H37      -0.9035    -6.7233     3.6379 H      1 <0>       0.0900
   38 H38       0.6398    -6.8864     2.7662 H      1 <0>       0.0700
   39 H39       0.6356    -6.5058     4.5050 H      1 <0>       0.1100
   40 H40      -0.9430    -5.2987     0.4228 H      1 <0>       0.0800
   41 H41       0.5795    -4.5028    -0.0426 H      1 <0>       0.0800
   42 H42       0.6167    -6.0295     0.8716 H      1 <0>       0.1000
@<TRIPOS>BOND
   1    1    2 1
   2    1   25 1
   3    1   26 1
   4    1   27 1
   5    2   24 1
   6    2    3 2
   7    3    4 1
   8    3   28 1
   9    4    5 1
  10    5    6 1
  11    5   24 2
  12    6   22 1
  13    6    7 2
  14    7    8 1
  15    7   29 1
  16    8    9 1
  17    8   20 2
  18    9   10 2
  19    9   11 2
  20    9   12 1
  21   12   13 1
  22   13   18 ar
  23   13   14 ar
  24   14   15 ar
  25   14   30 1
  26   15   16 ar
  27   15   31 1
  28   16   17 ar
  29   16   32 1
  30   17   18 ar
  31   17   33 1
  32   18   19 1
  33   19   34 1
  34   19   35 1
  35   19   36 1
  36   20   21 1
  37   20   22 1
  38   21   37 1
  39   21   38 1
  40   21   39 1
  41   22   23 1
  42   23   40 1
  43   23   41 1
  44   23   42 1
@<TRIPOS>MOLECULE
ZINC000071977539
  36   38    0    0    0
SMALL
USER_CHARGES
NO_NAME
@<TRIPOS>ATOM
    1 C1       -0.0184     1.5028     0.0103 C.3    1 <0>      -0.1200
    2 C2        0.0021    -0.0041     0.0020 C.ar   1 <0>      -0.0800
    3 C3        0.0057    -0.6886    -1.1982 C.ar   1 <0>      -0.1200
    4 C4        0.0244    -2.0711    -1.2062 C.ar   1 <0>      -0.0300
    5 C5        0.0390    -2.7700    -0.0137 C.ar   1 <0>      -0.5900
    6 S6        0.0623    -4.5319    -0.0258 S.o2   1 <0>       2.5900
    7 O7       -0.4711    -4.9487     1.2236 O.2    1 <0>      -1.0200
    8 O8       -0.4825    -4.9318    -1.2758 O.2    1 <0>      -1.0200
    9 N9        1.6504    -5.0011    -0.0363 N.pl3  1 <0>      -1.0300
   10 C10       1.9776    -6.3599    -0.0470 C.ar   1 <0>       0.3000
   11 C11       0.9736    -7.3171    -0.0546 C.ar   1 <0>      -0.2400
   12 C12       1.3001    -8.6612    -0.0652 C.ar   1 <0>       0.0300
   13 Cl13      0.0423    -9.8577    -0.0753 Cl     1 <0>      -0.1000
   14 C14       2.6268    -9.0546    -0.0682 C.ar   1 <0>      -0.2000
   15 C15       3.6329    -8.1067    -0.0601 C.ar   1 <0>      -0.0800
   16 C16       3.3146    -6.7574    -0.0558 C.ar   1 <0>       0.0700
   17 N17       4.3349    -5.7940    -0.0477 N.pl3  1 <0>      -0.2800
   18 C18       5.6636    -6.0424    -0.0489 C.2    1 <0>       0.0200
   19 C19       6.3056    -4.8507    -0.0397 C.2    1 <0>      -0.2800
   20 C20       5.3381    -3.8405    -0.0327 C.2    1 <0>      -0.0100
   21 N21       4.1567    -4.4045    -0.0431 N.2    1 <0>      -0.2000
   22 C22       0.0359    -2.0874     1.1881 C.ar   1 <0>      -0.0500
   23 C23       0.0229    -0.7031     1.1973 C.ar   1 <0>       0.0700
   24 F24       0.0198    -0.0348     2.3714 F      1 <0>      -0.1400
   25 H25       1.0042     1.8801     0.0026 H      1 <0>       0.0800
   26 H26      -0.5455     1.8639    -0.8728 H      1 <0>       0.0700
   27 H27      -0.5286     1.8543     0.9071 H      1 <0>       0.0700
   28 H28      -0.0064    -0.1436    -2.1305 H      1 <0>       0.1400
   29 H29       0.0273    -2.6054    -2.1448 H      1 <0>       0.1400
   30 H30      -0.0627    -7.0129    -0.0519 H      1 <0>       0.1200
   31 H31       2.8769   -10.1052    -0.0764 H      1 <0>       0.1300
   32 H32       4.6673    -8.4174    -0.0618 H      1 <0>       0.1200
   33 H33       6.1295    -7.0168    -0.0555 H      1 <0>       0.1600
   34 H34       7.3758    -4.7056    -0.0375 H      1 <0>       0.1400
   35 H35       5.5323    -2.7781    -0.0247 H      1 <0>       0.1700
   36 H36       0.0473    -2.6337     2.1197 H      1 <0>       0.1500
@<TRIPOS>BOND
   1    1    2 1
   2    1   25 1
   3    1   26 1
   4    1   27 1
   5    2   23 ar
   6    2    3 ar
   7    3    4 ar
   8    3   28 1
   9    4    5 ar
  10    4   29 1
  11    5    6 1
  12    5   22 ar
  13    6    7 2
  14    6    8 2
  15    6    9 1
  16    9   10 1
  17   10   16 ar
  18   10   11 ar
  19   11   12 ar
  20   11   30 1
  21   12   13 1
  22   12   14 ar
  23   14   15 ar
  24   14   31 1
  25   15   16 ar
  26   15   32 1
  27   16   17 1
  28   17   21 1
  29   17   18 1
  30   18   19 2
  31   18   33 1
  32   19   20 1
  33   19   34 1
  34   20   21 2
  35   20   35 1
  36   22   23 ar
  37   22   36 1
  38   23   24 1

@<TRIPOS>MOLECULE
ZINC000071977539
  37   39    0    0    0
SMALL
USER_CHARGES
NO_NAME
@<TRIPOS>ATOM
    1 C1       -0.3782     1.3912     0.2968 C.3    1 <0>      -0.1300
    2 C2       -0.2737    -0.1107     0.2299 C.ar   1 <0>      -0.0600
    3 C3       -0.2595    -0.7486    -0.9958 C.ar   1 <0>      -0.1100
    4 C4       -0.1637    -2.1265    -1.0575 C.ar   1 <0>      -0.0200
    5 C5       -0.0823    -2.8676     0.1064 C.ar   1 <0>      -0.6600
    6 S6        0.0392    -4.6235     0.0258 S.o2   1 <0>       2.6900
    7 O7       -0.4409    -5.1165     1.2690 O.2    1 <0>      -0.9400
    8 O8       -0.5112    -5.0067    -1.2270 O.2    1 <0>      -0.9400
    9 N9        1.6504    -5.0011    -0.0363 N.am   1 <0>      -1.0400
   10 C10       2.4969    -4.6258     1.0107 C.ar   1 <0>       0.1700
   11 C11       2.0340    -4.6390     2.3183 C.ar   1 <0>      -0.1500
   12 C12       2.8738    -4.2671     3.3526 C.ar   1 <0>      -0.0100
   13 Cl13      2.2930    -4.2849     4.9885 Cl     1 <0>      -0.0500
   14 C14       4.1759    -3.8814     3.0868 C.ar   1 <0>      -0.1000
   15 C15       4.6444    -3.8652     1.7863 C.ar   1 <0>      -0.1000
   16 C16       3.8113    -4.2424     0.7443 C.ar   1 <0>       0.1400
   17 N17       4.2855    -4.2264    -0.5764 N.pl3  1 <0>      -0.3200
   18 C18       5.5288    -3.8718    -0.9710 C.2    1 <0>       0.0600
   19 C19       5.5834    -3.9923    -2.3182 C.2    1 <0>      -0.2600
   20 C20       4.3330    -4.4351    -2.7620 C.2    1 <0>       0.0700
   21 N21       3.5560    -4.5811    -1.7185 N.2    1 <0>      -0.3100
   22 C22      -0.0958    -2.2317     1.3336 C.ar   1 <0>      -0.0500
   23 C23      -0.1860    -0.8517     1.3965 C.ar   1 <0>       0.0800
   24 F24      -0.1993    -0.2290     2.5954 F      1 <0>      -0.1300
   25 H25       0.6212     1.8260     0.2822 H      1 <0>       0.0800
   26 H26      -0.9451     1.7545    -0.5603 H      1 <0>       0.0800
   27 H27      -0.8863     1.6793     1.2171 H      1 <0>       0.0800
   28 H28      -0.3238    -0.1706    -1.9058 H      1 <0>       0.1500
   29 H29      -0.1527    -2.6242    -2.0160 H      1 <0>       0.1500
   30 H30       2.0066    -5.4827    -0.7992 H      1 <0>       0.4400
   31 H31       1.0181    -4.9393     2.5287 H      1 <0>       0.1800
   32 H32       4.8279    -3.5919     3.8976 H      1 <0>       0.1500
   33 H33       5.6610    -3.5629     1.5825 H      1 <0>       0.1500
   34 H34       6.3338    -3.5497    -0.3272 H      1 <0>       0.1800
   35 H35       6.4409    -3.7830    -2.9405 H      1 <0>       0.1600
   36 H36       4.0573    -4.6277    -3.7883 H      1 <0>       0.1900
   37 H37      -0.0322    -2.8109     2.2429 H      1 <0>       0.1500
@<TRIPOS>BOND
   1    1    2 1
   2    1   25 1
   3    1   26 1
   4    1   27 1
   5    2   23 ar
   6    2    3 ar
   7    3    4 ar
   8    3   28 1
   9    4    5 ar
  10    4   29 1
  11    5    6 1
  12    5   22 ar
  13    6    7 2
  14    6    8 2
  15    6    9 am
  16    9   10 1
  17    9   30 1
  18   10   16 ar
  19   10   11 ar
  20   11   12 ar
  21   11   31 1
  22   12   13 1
  23   12   14 ar
  24   14   15 ar
  25   14   32 1
  26   15   16 ar
  27   15   33 1
  28   16   17 1
  29   17   21 1
  30   17   18 1
  31   18   19 2
  32   18   34 1
  33   19   20 1
  34   19   35 1
  35   20   21 2
  36   20   36 1
  37   22   23 ar
  38   22   37 1
  39   23   24 1
@<TRIPOS>MOLECULE
ZINC000007109219
45    47    1     0     0
SMALL
USER_CHARGES
@<TRIPOS>ATOM
1      C1      0.2928    1.5801   -0.7559 C.3      1 ZINC000007109219   -0.0500
2      N2      0.2706    0.1158   -0.6411 N.4      1 ZINC000007109219   -0.3900
3      H3     -0.6826   -0.1990   -0.5396 H        1 ZINC000007109219    0.4200
4      C4      1.0493   -0.2947    0.5347 C.3      1 ZINC000007109219    0.0000
5      C5      1.0109   -1.8189    0.6655 C.3      1 ZINC000007109219    0.0200
6      N6      1.5702   -2.4263   -0.5504 N.3      1 ZINC000007109219   -0.4900
7      C7      1.6015   -3.8220   -0.4453 C.ar     1 ZINC000007109219    0.0800
8      C8      1.1318   -4.4423    0.7048 C.ar     1 ZINC000007109219   -0.1400
9      C9      1.1622   -5.8190    0.8083 C.ar     1 ZINC000007109219   -0.1000
10     C10     1.6624   -6.5831   -0.2377 C.ar     1 ZINC000007109219    0.1400
11     N11     1.6937   -7.9788   -0.1326 N.am     1 ZINC000007109219   -1.0500
12     S12     1.1643   -8.9159   -1.3911 S.o2     1 ZINC000007109219    2.6900
13     O13     1.8561   -8.4636   -2.5470 O.2      1 ZINC000007109219   -0.9400
14     O14     1.2083  -10.2613   -0.9357 O.2      1 ZINC000007109219   -0.9300
15     C15    -0.5364   -8.5328   -1.6473 C.ar     1 ZINC000007109219   -0.6700
16     C16    -0.9429   -7.9526   -2.8338 C.ar     1 ZINC000007109219   -0.0100
17     C17    -2.2773   -7.6519   -3.0351 C.ar     1 ZINC000007109219   -0.1400
18     C18    -3.2054   -7.9309   -2.0495 C.ar     1 ZINC000007109219   -0.0500
19     C19    -2.8000   -8.5113   -0.8622 C.ar     1 ZINC000007109219   -0.1300
20     C20    -1.4659   -8.8180   -0.6628 C.ar     1 ZINC000007109219    0.0500
21     Cl21   -0.9560   -9.5469    0.8280 Cl       1 ZINC000007109219   -0.0400
22     C22     2.1313   -5.9628   -1.3882 C.ar     1 ZINC000007109219   -0.1200
23     C23     2.0968   -4.5863   -1.4935 C.ar     1 ZINC000007109219   -0.1000
24     C24     0.8158   -2.0044   -1.7391 C.3      1 ZINC000007109219    0.0200
25     C25     0.8562   -0.4787   -1.8499 C.3      1 ZINC000007109219    0.0000
26     H26     1.3225    1.9204   -0.8655 H        1 ZINC000007109219    0.1200
27     H27    -0.2854    1.8850   -1.6281 H        1 ZINC000007109219    0.1300
28     H28    -0.1422    2.0215    0.1409 H        1 ZINC000007109219    0.1300
29     H29     2.0821    0.0341    0.4194 H        1 ZINC000007109219    0.1400
30     H30     0.6219    0.1576    1.4296 H        1 ZINC000007109219    0.1400
31     H31     1.6010   -2.1248    1.5293 H        1 ZINC000007109219    0.1300
32     H32    -0.0205   -2.1470    0.7945 H        1 ZINC000007109219    0.0700
33     H33     0.7430   -3.8481    1.5185 H        1 ZINC000007109219    0.1300
34     H34     0.7972   -6.3015    1.7030 H        1 ZINC000007109219    0.1400
35     H35     2.0254   -8.3968    0.6774 H        1 ZINC000007109219    0.4300
36     H36    -0.2181   -7.7337   -3.6040 H        1 ZINC000007109219    0.1500
37     H37    -2.5946   -7.1985   -3.9625 H        1 ZINC000007109219    0.1400
38     H38    -4.2476   -7.6951   -2.2070 H        1 ZINC000007109219    0.1400
39     H39    -3.5253   -8.7293   -0.0923 H        1 ZINC000007109219    0.1500
40     H40     2.5200   -6.5570   -2.2019 H        1 ZINC000007109219    0.1600
41     H41     2.4612   -4.1039   -2.3884 H        1 ZINC000007109219    0.1400
42     H42     1.2636   -2.4457   -2.6296 H        1 ZINC000007109219    0.1300
43     H43    -0.2188   -2.3355   -1.6497 H        1 ZINC000007109219    0.0700
44     H44     0.2853   -0.1626   -2.7230 H        1 ZINC000007109219    0.1400
45     H45     1.8900   -0.1491   -1.9530 H        1 ZINC000007109219    0.1400
@<TRIPOS>BOND
1     1     2     1
2     1     26    1
3     1     27    1
4     1     28    1
5     2     3     1
6     2     25    1
7     2     4     1
8     4     5     1
9     4     29    1
10    4     30    1
11    5     6     1
12    5     31    1
13    5     32    1
14    6     7     1
15    6     24    1
16    7     23    ar
17    7     8     ar
18    8     9     ar
19    8     33    1
20    9     10    ar
21    9     34    1
22    10    11    1
23    10    22    ar
24    11    12    am
25    11    35    1
26    12    13    2
27    12    14    2
28    12    15    1
29    15    20    ar
30    15    16    ar
31    16    17    ar
32    16    36    1
33    17    18    ar
34    17    37    1
35    18    19    ar
36    18    38    1
37    19    20    ar
38    19    39    1
39    20    21    1
40    22    23    ar
41    22    40    1
42    23    41    1
43    24    25    1
44    24    42    1
45    24    43    1
46    25    44    1
47    25    45    1
@<TRIPOS>SUBSTRUCTURE
1   ZINC000007109219 1     RESIDUE    1   A     ZIN   1

@<TRIPOS>MOLECULE
ZINC000007109219
44    46    1     0     0
SMALL
USER_CHARGES
@<TRIPOS>ATOM
1      C1     -0.0178    1.4648    0.0101 C.3      1 ZINC000007109219   -0.0400
2      N2      0.0021   -0.0041    0.0020 N.4      1 ZINC000007109219   -0.3900
3      H3     -0.9446   -0.3531    0.0092 H        1 ZINC000007109219    0.4200
4      C4      0.7119   -0.4904    1.1925 C.3      1 ZINC000007109219    0.0000
5      C5      0.7166   -2.0206    1.1942 C.3      1 ZINC000007109219    0.0200
6      N6      1.3783   -2.5070   -0.0247 N.3      1 ZINC000007109219   -0.4700
7      C7      1.4498   -3.9052   -0.0329 C.ar     1 ZINC000007109219   -0.0500
8      C8      0.9238   -4.6335    1.0259 C.ar     1 ZINC000007109219   -0.1100
9      C9      0.9940   -6.0126    1.0176 C.ar     1 ZINC000007109219   -0.1600
10     C10     1.5905   -6.6711   -0.0496 C.ar     1 ZINC000007109219    0.2900
11     N11     1.6620   -8.0692   -0.0578 N.pl3    1 ZINC000007109219   -1.0700
12     S12     2.3734   -8.8544   -1.3305 S.o2     1 ZINC000007109219    2.6100
13     O13     1.5451   -8.6190   -2.4609 O.2      1 ZINC000007109219   -1.0300
14     O14     3.7522   -8.5129   -1.2926 O.2      1 ZINC000007109219   -1.0100
15     C15     2.2793  -10.5818   -0.9959 C.ar     1 ZINC000007109219   -0.6200
16     C16     1.5251  -11.4037   -1.8116 C.ar     1 ZINC000007109219   -0.0200
17     C17     1.4511  -12.7592   -1.5492 C.ar     1 ZINC000007109219   -0.1400
18     C18     2.1311  -13.2930   -0.4707 C.ar     1 ZINC000007109219   -0.0700
19     C19     2.8859  -12.4719    0.3460 C.ar     1 ZINC000007109219   -0.1400
20     C20     2.9652  -11.1166    0.0803 C.ar     1 ZINC000007109219    0.0600
21     Cl21    3.9129  -10.0848    1.1055 Cl       1 ZINC000007109219   -0.0300
22     C22     2.1157   -5.9428   -1.1088 C.ar     1 ZINC000007109219   -0.2500
23     C23     2.0416   -4.5638   -1.1026 C.ar     1 ZINC000007109219   -0.0600
24     C24     0.6932   -2.0076   -1.2253 C.3      1 ZINC000007109219    0.0200
25     C25     0.6890   -0.4775   -1.2069 C.3      1 ZINC000007109219    0.0000
26     H26     1.0047    1.8421    0.0024 H        1 ZINC000007109219    0.1200
27     H27    -0.5450    1.8259   -0.8730 H        1 ZINC000007109219    0.1200
28     H28    -0.5280    1.8163    0.9069 H        1 ZINC000007109219    0.1200
29     H29     1.7384   -0.1239    1.1783 H        1 ZINC000007109219    0.1300
30     H30     0.2090   -0.1276    2.0888 H        1 ZINC000007109219    0.1300
31     H31     1.2562   -2.3817    2.0697 H        1 ZINC000007109219    0.1300
32     H32    -0.3095   -2.3874    1.2221 H        1 ZINC000007109219    0.0600
33     H33     0.4602   -4.1214    1.8560 H        1 ZINC000007109219    0.1100
34     H34     0.5852   -6.5791    1.8412 H        1 ZINC000007109219    0.1200
35     H35     0.9930  -10.9870   -2.6541 H        1 ZINC000007109219    0.1500
36     H36     0.8615  -13.4011   -2.1870 H        1 ZINC000007109219    0.1300
37     H37     2.0723  -14.3517   -0.2658 H        1 ZINC000007109219    0.1400
38     H38     3.4171  -12.8891    1.1886 H        1 ZINC000007109219    0.1400
39     H39     2.5793   -6.4549   -1.9390 H        1 ZINC000007109219    0.1000
40     H40     2.4498   -3.9974   -1.9266 H        1 ZINC000007109219    0.1100
41     H41     1.2157   -2.3592   -2.1150 H        1 ZINC000007109219    0.1200
42     H42    -0.3333   -2.3742   -1.2373 H        1 ZINC000007109219    0.0600
43     H43     0.1689   -0.1049   -2.0894 H        1 ZINC000007109219    0.1300
44     H44     1.7157   -0.1113   -1.2087 H        1 ZINC000007109219    0.1300
@<TRIPOS>BOND
1     1     2     1
2     1     26    1
3     1     27    1
4     1     28    1
5     2     3     1
6     2     25    1
7     2     4     1
8     4     5     1
9     4     29    1
10    4     30    1
11    5     6     1
12    5     31    1
13    5     32    1
14    6     7     1
15    6     24    1
16    7     23    ar
17    7     8     ar
18    8     9     ar
19    8     33    1
20    9     10    ar
21    9     34    1
22    10    11    1
23    10    22    ar
24    11    12    1
25    12    13    2
26    12    14    2
27    12    15    1
28    15    20    ar
29    15    16    ar
30    16    17    ar
31    16    35    1
32    17    18    ar
33    17    36    1
34    18    19    ar
35    18    37    1
36    19    20    ar
37    19    38    1
38    20    21    1
39    22    23    ar
40    22    39    1
41    23    40    1
42    24    25    1
43    24    41    1
44    24    42    1
45    25    43    1
46    25    44    1
@<TRIPOS>SUBSTRUCTURE
1   ZINC000007109219 1     RESIDUE    1   A     ZIN   1

@<TRIPOS>MOLECULE
ZINC000007109219
43    45    1     0     0
SMALL
USER_CHARGES
@<TRIPOS>ATOM
1      C1     -0.0178    1.4648    0.0101 C.3      1 ZINC000007109219    0.0300
2      N2      0.0021   -0.0041    0.0020 N.3      1 ZINC000007109219   -0.5500
3      C3     -1.3604   -0.5488   -0.0788 C.3      1 ZINC000007109219    0.0600
4      C4     -1.2923   -2.0754   -0.1650 C.3      1 ZINC000007109219    0.0600
5      N5     -0.5880   -2.5990    1.0137 N.3      1 ZINC000007109219   -0.4800
6      C6     -0.5690   -3.9989    1.0060 C.ar     1 ZINC000007109219   -0.0100
7      C7     -1.1657   -4.6956   -0.0364 C.ar     1 ZINC000007109219   -0.1200
8      C8     -1.1466   -6.0763   -0.0443 C.ar     1 ZINC000007109219   -0.1600
9      C9     -0.5306   -6.7681    0.9903 C.ar     1 ZINC000007109219    0.2700
10     N10    -0.5116   -8.1679    0.9826 N.pl3    1 ZINC000007109219   -1.0800
11     S11     0.2230   -8.9928    2.2164 S.o2     1 ZINC000007109219    2.6000
12     O12     1.6109   -8.7026    2.1227 O.2      1 ZINC000007109219   -1.0300
13     O13    -0.5471   -8.7388    3.3833 O.2      1 ZINC000007109219   -1.0100
14     C14     0.0497  -10.7118    1.8703 C.ar     1 ZINC000007109219   -0.6100
15     C15     1.1689  -11.4823    1.6184 C.ar     1 ZINC000007109219   -0.0200
16     C16     1.0331  -12.8312    1.3467 C.ar     1 ZINC000007109219   -0.1500
17     C17    -0.2221  -13.4097    1.3265 C.ar     1 ZINC000007109219   -0.0700
18     C18    -1.3424  -12.6400    1.5784 C.ar     1 ZINC000007109219   -0.1400
19     C19    -1.2066  -11.2917    1.8563 C.ar     1 ZINC000007109219    0.0600
20     Cl20   -2.6130  -10.3244    2.1727 Cl       1 ZINC000007109219   -0.0300
21     C21     0.0669   -6.0713    2.0323 C.ar     1 ZINC000007109219   -0.2400
22     C22     0.0516   -4.6905    2.0379 C.ar     1 ZINC000007109219   -0.0700
23     C23     0.7745   -2.0543    1.0946 C.3      1 ZINC000007109219    0.0600
24     C24     0.7064   -0.5277    1.1807 C.3      1 ZINC000007109219    0.0600
25     H25     1.0047    1.8421    0.0024 H        1 ZINC000007109219    0.0700
26     H26    -0.5450    1.8259   -0.8730 H        1 ZINC000007109219    0.0700
27     H27    -0.5280    1.8163    0.9069 H        1 ZINC000007109219    0.0200
28     H28    -1.9211   -0.2594    0.8100 H        1 ZINC000007109219    0.0400
29     H29    -1.8569   -0.1563   -0.9662 H        1 ZINC000007109219    0.0800
30     H30    -2.3026   -2.4833   -0.1958 H        1 ZINC000007109219    0.0800
31     H31    -0.7551   -2.3650   -1.0681 H        1 ZINC000007109219    0.0500
32     H32    -1.6451   -4.1576   -0.8409 H        1 ZINC000007109219    0.1100
33     H33    -1.6110   -6.6182   -0.8549 H        1 ZINC000007109219    0.1100
34     H34     2.1498  -11.0307    1.6333 H        1 ZINC000007109219    0.1500
35     H35     1.9080  -13.4329    1.1499 H        1 ZINC000007109219    0.1300
36     H36    -0.3276  -14.4632    1.1136 H        1 ZINC000007109219    0.1300
37     H37    -2.3230  -13.0921    1.5626 H        1 ZINC000007109219    0.1400
38     H38     0.5463   -6.6093    2.8367 H        1 ZINC000007109219    0.1000
39     H39     0.5166   -4.1486    2.8481 H        1 ZINC000007109219    0.1000
40     H40     1.2710   -2.4468    1.9820 H        1 ZINC000007109219    0.0800
41     H41     1.3352   -2.3437    0.2058 H        1 ZINC000007109219    0.0400
42     H42     1.7168   -0.1198    1.2116 H        1 ZINC000007109219    0.0800
43     H43     0.1692   -0.2380    2.0838 H        1 ZINC000007109219    0.0400
@<TRIPOS>BOND
1     1     2     1
2     1     25    1
3     1     26    1
4     1     27    1
5     2     24    1
6     2     3     1
7     3     4     1
8     3     28    1
9     3     29    1
10    4     5     1
11    4     30    1
12    4     31    1
13    5     6     1
14    5     23    1
15    6     22    ar
16    6     7     ar
17    7     8     ar
18    7     32    1
19    8     9     ar
20    8     33    1
21    9     10    1
22    9     21    ar
23    10    11    1
24    11    12    2
25    11    13    2
26    11    14    1
27    14    19    ar
28    14    15    ar
29    15    16    ar
30    15    34    1
31    16    17    ar
32    16    35    1
33    17    18    ar
34    17    36    1
35    18    19    ar
36    18    37    1
37    19    20    1
38    21    22    ar
39    21    38    1
40    22    39    1
41    23    24    1
42    23    40    1
43    23    41    1
44    24    42    1
45    24    43    1
@<TRIPOS>SUBSTRUCTURE
1   ZINC000007109219 1     RESIDUE    1   A     ZIN   1
@<TRIPOS>MOLECULE
ZINC000074685435
43    45    1     0     0
SMALL
USER_CHARGES
@<TRIPOS>ATOM
1      C1      0.1645    1.6921    0.1452 C.3      1 ZINC000074685435   -0.1200
2      C2      0.2656    0.1934    0.0237 C.ar     1 ZINC000074685435   -0.1200
3      C3      0.4368   -0.3895   -1.2163 C.ar     1 ZINC000074685435    0.0000
4      C4      0.5292   -1.7649   -1.3288 C.ar     1 ZINC000074685435   -0.6700
5      S5      0.7475   -2.5046   -2.9131 S.o2     1 ZINC000074685435    2.5000
6      C6      2.5467   -2.5933   -3.1271 C.3      1 ZINC000074685435   -0.6500
7      O7      0.1975   -3.8070   -2.7705 O.2      1 ZINC000074685435   -0.9300
8      O8      0.1833   -1.5661   -3.8187 O.2      1 ZINC000074685435   -0.9400
9      C9      0.4510   -2.5607   -0.2009 C.ar     1 ZINC000074685435    0.0000
10     C10     0.2803   -1.9841    1.0426 C.ar     1 ZINC000074685435   -0.1900
11     C11     0.1924   -0.6029    1.1597 C.ar     1 ZINC000074685435    0.2100
12     N12     0.0198   -0.0165    2.4156 N.am     1 ZINC000074685435   -1.0500
13     S13     0.7468   -0.6813    3.7468 S.o2     1 ZINC000074685435    2.6900
14     O14     0.5021    0.2111    4.8252 O.2      1 ZINC000074685435   -0.9400
15     O15     0.3672   -2.0505    3.7695 O.2      1 ZINC000074685435   -0.9400
16     C16     2.4852   -0.6516    3.4611 C.ar     1 ZINC000074685435   -0.6800
17     C17     3.1023   -1.7201    2.8384 C.ar     1 ZINC000074685435   -0.0200
18     C18     4.4653   -1.6945    2.6150 C.ar     1 ZINC000074685435   -0.1300
19     C19     5.2162   -0.6014    3.0129 C.ar     1 ZINC000074685435   -0.0300
20     C20     6.7004   -0.3324    2.8866 C.3      1 ZINC000074685435   -0.0900
21     C21     6.8549    1.1884    3.0998 C.3      1 ZINC000074685435   -0.1200
22     C22     5.6264    1.5275    3.9704 C.3      1 ZINC000074685435   -0.0800
23     C23     4.5989    0.4675    3.6358 C.ar     1 ZINC000074685435   -0.1200
24     C24     3.2320    0.4422    3.8541 C.ar     1 ZINC000074685435    0.0000
25     H25     1.1603    2.1135    0.2823 H        1 ZINC000074685435    0.0800
26     H26    -0.2813    2.1009   -0.7616 H        1 ZINC000074685435    0.0800
27     H27    -0.4587    1.9459    1.0027 H        1 ZINC000074685435    0.0700
28     H28     0.4982    0.2293   -2.0994 H        1 ZINC000074685435    0.1500
29     H29     2.9777   -3.2009   -2.3314 H        1 ZINC000074685435    0.1300
30     H30     2.7759   -3.0436   -4.0929 H        1 ZINC000074685435    0.1300
31     H31     2.9675   -1.5886   -3.0856 H        1 ZINC000074685435    0.1300
32     H32     0.5232   -3.6344   -0.2922 H        1 ZINC000074685435    0.1500
33     H33     0.2190   -2.6063    1.9232 H        1 ZINC000074685435    0.1700
34     H34    -0.5258    0.7801    2.5081 H        1 ZINC000074685435    0.4300
35     H35     2.5194   -2.5744    2.5271 H        1 ZINC000074685435    0.1400
36     H36     4.9468   -2.5300    2.1286 H        1 ZINC000074685435    0.1300
37     H37     7.2504   -0.8795    3.6524 H        1 ZINC000074685435    0.0900
38     H38     7.0525   -0.6129    1.8939 H        1 ZINC000074685435    0.0800
39     H39     7.7799    1.4132    3.6306 H        1 ZINC000074685435    0.0800
40     H40     6.8140    1.7191    2.1486 H        1 ZINC000074685435    0.0800
41     H41     5.8876    1.4806    5.0277 H        1 ZINC000074685435    0.0900
42     H42     5.2452    2.5169    3.7177 H        1 ZINC000074685435    0.0800
43     H43     2.7484    1.2788    4.3365 H        1 ZINC000074685435    0.1400
@<TRIPOS>BOND
1     1     2     1
2     1     25    1
3     1     26    1
4     1     27    1
5     2     11    ar
6     2     3     ar
7     3     4     ar
8     3     28    1
9     4     5     1
10    4     9     ar
11    5     6     1
12    5     7     2
13    5     8     2
14    6     29    1
15    6     30    1
16    6     31    1
17    9     10    ar
18    9     32    1
19    10    11    ar
20    10    33    1
21    11    12    1
22    12    13    am
23    12    34    1
24    13    14    2
25    13    15    2
26    13    16    1
27    16    24    ar
28    16    17    ar
29    17    18    ar
30    17    35    1
31    18    19    ar
32    18    36    1
33    19    23    ar
34    19    20    1
35    20    21    1
36    20    37    1
37    20    38    1
38    21    22    1
39    21    39    1
40    21    40    1
41    22    23    1
42    22    41    1
43    22    42    1
44    23    24    ar
45    24    43    1
@<TRIPOS>SUBSTRUCTURE
1   ZINC000074685435 1     RESIDUE    1   A     ZIN   1

@<TRIPOS>MOLECULE
ZINC000074685435
42    44    1     0     0
SMALL
USER_CHARGES
@<TRIPOS>ATOM
1      C1     -0.0184    1.5028    0.0103 C.3      1 ZINC000074685435   -0.0800
2      C2      0.0021   -0.0041    0.0020 C.ar     1 ZINC000074685435   -0.1700
3      C3      0.0057   -0.6887   -1.1971 C.ar     1 ZINC000074685435    0.0100
4      C4      0.0240   -2.0716   -1.2056 C.ar     1 ZINC000074685435   -0.7500
5      S5      0.0286   -2.9412   -2.7381 S.o2     1 ZINC000074685435    2.5100
6      C6      1.7862   -3.1414   -3.1396 C.3      1 ZINC000074685435   -0.6600
7      O7     -0.5587   -4.1979   -2.4297 O.2      1 ZINC000074685435   -0.9600
8      O8     -0.5926   -2.0465   -3.6506 O.2      1 ZINC000074685435   -0.9600
9      C9      0.0391   -2.7733   -0.0144 C.ar     1 ZINC000074685435    0.0200
10     C10     0.0360   -2.0947    1.1887 C.ar     1 ZINC000074685435   -0.2800
11     C11     0.0230   -0.7059    1.2009 C.ar     1 ZINC000074685435    0.3300
12     N12     0.0198   -0.0165    2.4156 N.pl3    1 ZINC000074685435   -1.0700
13     S13     0.0316   -0.8551    3.8436 S.o2     1 ZINC000074685435    2.6100
14     O14    -1.2116   -1.5395    3.9173 O.2      1 ZINC000074685435   -1.0200
15     O15     1.2878   -1.5160    3.9104 O.2      1 ZINC000074685435   -1.0200
16     C16     0.0240    0.3320    5.1456 C.ar     1 ZINC000074685435   -0.6200
17     C17     1.2175    0.8135    5.6496 C.ar     1 ZINC000074685435   -0.0200
18     C18     1.2092    1.7445    6.6702 C.ar     1 ZINC000074685435   -0.1300
19     C19     0.0087    2.1974    7.1904 C.ar     1 ZINC000074685435   -0.0600
20     C20    -0.2678    3.1974    8.2926 C.3      1 ZINC000074685435   -0.0800
21     C21    -1.7466    3.6004    8.1108 C.3      1 ZINC000074685435   -0.1200
22     C22    -2.3451    2.3593    7.4153 C.3      1 ZINC000074685435   -0.0800
23     C23    -1.1852    1.7158    6.6862 C.ar     1 ZINC000074685435   -0.1300
24     C24    -1.1749    0.7866    5.6598 C.ar     1 ZINC000074685435   -0.0100
25     H25     1.0042    1.8801    0.0026 H        1 ZINC000074685435    0.0500
26     H26    -0.5455    1.8639   -0.8728 H        1 ZINC000074685435    0.0400
27     H27    -0.5286    1.8543    0.9071 H        1 ZINC000074685435    0.0700
28     H28    -0.0060   -0.1437   -2.1294 H        1 ZINC000074685435    0.1200
29     H29     2.2774   -3.7082   -2.3487 H        1 ZINC000074685435    0.1300
30     H30     1.8845   -3.6760   -4.0844 H        1 ZINC000074685435    0.1200
31     H31     2.2530   -2.1603   -3.2271 H        1 ZINC000074685435    0.1300
32     H32     0.0529   -3.8531   -0.0245 H        1 ZINC000074685435    0.1200
33     H33     0.0474   -2.6434    2.1189 H        1 ZINC000074685435    0.1000
34     H34     2.1556    0.4620    5.2462 H        1 ZINC000074685435    0.1400
35     H35     2.1422    2.1201    7.0638 H        1 ZINC000074685435    0.1200
36     H36    -0.1190    2.7354    9.2686 H        1 ZINC000074685435    0.0800
37     H37     0.3778    4.0688    8.1834 H        1 ZINC000074685435    0.0800
38     H38    -2.2231    3.7711    9.0761 H        1 ZINC000074685435    0.0800
39     H39    -1.8327    4.4807    7.4739 H        1 ZINC000074685435    0.0700
40     H40    -2.7550    1.6719    8.1553 H        1 ZINC000074685435    0.0800
41     H41    -3.1178    2.6585    6.7071 H        1 ZINC000074685435    0.0800
42     H42    -2.1071    0.4134    5.2623 H        1 ZINC000074685435    0.1300
@<TRIPOS>BOND
1     1     2     1
2     1     25    1
3     1     26    1
4     1     27    1
5     2     11    ar
6     2     3     ar
7     3     4     ar
8     3     28    1
9     4     5     1
10    4     9     ar
11    5     6     1
12    5     7     2
13    5     8     2
14    6     29    1
15    6     30    1
16    6     31    1
17    9     10    ar
18    9     32    1
19    10    11    ar
20    10    33    1
21    11    12    1
22    12    13    1
23    13    14    2
24    13    15    2
25    13    16    1
26    16    24    ar
27    16    17    ar
28    17    18    ar
29    17    34    1
30    18    19    ar
31    18    35    1
32    19    23    ar
33    19    20    1
34    20    21    1
35    20    36    1
36    20    37    1
37    21    22    1
38    21    38    1
39    21    39    1
40    22    23    1
41    22    40    1
42    22    41    1
43    23    24    ar
44    24    42    1
@<TRIPOS>SUBSTRUCTURE
1   ZINC000074685435 1     RESIDUE    1   A     ZIN   1
@<TRIPOS>MOLECULE
ZINC000077958469
45    47    1     0     0
SMALL
USER_CHARGES
@<TRIPOS>ATOM
1      C1     -0.0184    1.5028    0.0103 C.3      1 ZINC000077958469   -0.0800
2      C2      0.0021   -0.0041    0.0020 C.2      1 ZINC000077958469   -0.1700
3      C3     -1.0773   -0.7877    0.0028 C.2      1 ZINC000077958469   -0.1600
4      C4     -0.8118   -2.1462   -0.0063 C.2      1 ZINC000077958469   -0.0200
5      C5      0.4832   -2.4658   -0.0145 C.2      1 ZINC000077958469   -0.7100
6      S6      1.1244   -4.1069   -0.0280 S.o2     1 ZINC000077958469    2.6100
7      O7      2.4370   -4.0293    0.5108 O.2      1 ZINC000077958469   -1.0300
8      O8      0.1090   -4.9389    0.5160 O.2      1 ZINC000077958469   -1.0300
9      N9      1.2953   -4.5534   -1.6135 N.pl3    1 ZINC000077958469   -1.0500
10     C10     1.7908   -5.8232   -1.9337 C.ar     1 ZINC000077958469    0.3000
11     C11     2.1334   -6.7103   -0.9251 C.ar     1 ZINC000077958469   -0.2600
12     C12     2.6222   -7.9644   -1.2437 C.ar     1 ZINC000077958469   -0.0600
13     C13     2.7710   -8.3370   -2.5663 C.ar     1 ZINC000077958469   -0.2200
14     C14     2.4321   -7.4580   -3.5790 C.ar     1 ZINC000077958469   -0.1000
15     C15     1.9356   -6.2014   -3.2687 C.ar     1 ZINC000077958469    0.0100
16     N16     1.5914   -5.3102   -4.2923 N.3      1 ZINC000077958469   -0.4600
17     C17     2.7716   -4.9382   -5.0860 C.3      1 ZINC000077958469    0.0400
18     C18     2.3619   -3.9196   -6.1530 C.3      1 ZINC000077958469    0.0900
19     H19     2.0030   -3.0108   -5.6699 H        1 ZINC000077958469    0.0700
20     C20     3.5689   -3.5880   -7.0329 C.3      1 ZINC000077958469   -0.1400
21     O21     1.3198   -4.4749   -6.9599 O.3      1 ZINC000077958469   -0.3900
22     C22     0.1548   -4.8479   -6.2190 C.3      1 ZINC000077958469    0.0900
23     H23    -0.2683   -3.9660   -5.7378 H        1 ZINC000077958469    0.0700
24     C24    -0.8796   -5.4584   -7.1667 C.3      1 ZINC000077958469   -0.1400
25     C25     0.5421   -5.8759   -5.1527 C.3      1 ZINC000077958469    0.0300
26     S26     1.4528   -0.9983   -0.0178 S.3      1 ZINC000077958469    0.2000
27     H27     1.0042    1.8801    0.0026 H        1 ZINC000077958469    0.0700
28     H28    -0.5455    1.8639   -0.8728 H        1 ZINC000077958469    0.0800
29     H29    -0.5286    1.8543    0.9071 H        1 ZINC000077958469    0.0800
30     H30    -2.0823   -0.3923    0.0103 H        1 ZINC000077958469    0.1400
31     H31    -1.5939   -2.8910   -0.0065 H        1 ZINC000077958469    0.1500
32     H32     2.0190   -6.4221    0.1094 H        1 ZINC000077958469    0.1000
33     H33     2.8887   -8.6543   -0.4567 H        1 ZINC000077958469    0.1000
34     H34     3.1534   -9.3172   -2.8098 H        1 ZINC000077958469    0.1000
35     H35     2.5503   -7.7521   -4.6114 H        1 ZINC000077958469    0.1000
36     H36     3.5254   -4.4982   -4.4331 H        1 ZINC000077958469    0.0800
37     H37     3.1804   -5.8261   -5.5684 H        1 ZINC000077958469    0.0300
38     H38     3.9263   -4.4969   -7.5169 H        1 ZINC000077958469    0.0600
39     H39     3.2766   -2.8628   -7.7923 H        1 ZINC000077958469    0.0600
40     H40     4.3636   -3.1681   -6.4163 H        1 ZINC000077958469    0.0700
41     H41    -0.4565   -6.3410   -7.6464 H        1 ZINC000077958469    0.0600
42     H42    -1.7673   -5.7424   -6.6015 H        1 ZINC000077958469    0.0700
43     H43    -1.1519   -4.7268   -7.9274 H        1 ZINC000077958469    0.0600
44     H44     0.9153   -6.7787   -5.6361 H        1 ZINC000077958469    0.0300
45     H45    -0.3316   -6.1203   -4.5484 H        1 ZINC000077958469    0.0800
@<TRIPOS>BOND
1     1     2     1
2     1     27    1
3     1     28    1
4     1     29    1
5     2     26    1
6     2     3     2
7     3     4     1
8     3     30    1
9     4     5     2
10    4     31    1
11    5     6     1
12    5     26    1
13    6     7     2
14    6     8     2
15    6     9     1
16    9     10    1
17    10    15    ar
18    10    11    ar
19    11    12    ar
20    11    32    1
21    12    13    ar
22    12    33    1
23    13    14    ar
24    13    34    1
25    14    15    ar
26    14    35    1
27    15    16    1
28    16    25    1
29    16    17    1
30    17    18    1
31    17    36    1
32    17    37    1
33    18    19    1
34    18    20    1
35    18    21    1
36    20    38    1
37    20    39    1
38    20    40    1
39    21    22    1
40    22    23    1
41    22    24    1
42    22    25    1
43    24    41    1
44    24    42    1
45    24    43    1
46    25    44    1
47    25    45    1
@<TRIPOS>SUBSTRUCTURE
1   ZINC000077958469 1     RESIDUE    1   A     ZIN   1

@<TRIPOS>MOLECULE
ZINC000077958469
46    48    1     0     0
SMALL
USER_CHARGES
@<TRIPOS>ATOM
1      C1      0.3279    1.4641    0.3597 C.3      1 ZINC000077958469   -0.0900
2      C2      0.2800   -0.0399    0.2776 C.2      1 ZINC000077958469   -0.1300
3      C3     -0.8325   -0.7757    0.2899 C.2      1 ZINC000077958469   -0.1700
4      C4     -0.6292   -2.1421    0.2029 C.2      1 ZINC000077958469    0.0200
5      C5      0.6486   -2.5160    0.1201 C.2      1 ZINC000077958469   -0.8000
6      S6      1.2140   -4.1804   -0.0021 S.o2     1 ZINC000077958469    2.7200
7      O7      2.5510   -4.1863    0.4792 O.2      1 ZINC000077958469   -0.9400
8      O8      0.1868   -4.9944    0.5469 O.2      1 ZINC000077958469   -0.9400
9      N9      1.2953   -4.5534   -1.6135 N.am     1 ZINC000077958469   -1.0400
10     C10     2.1342   -3.8191   -2.4605 C.ar     1 ZINC000077958469    0.1800
11     C11     3.3533   -3.3506   -1.9960 C.ar     1 ZINC000077958469   -0.1700
12     C12     4.1807   -2.6258   -2.8346 C.ar     1 ZINC000077958469   -0.0900
13     C13     3.7957   -2.3662   -4.1364 C.ar     1 ZINC000077958469   -0.1200
14     C14     2.5808   -2.8295   -4.6081 C.ar     1 ZINC000077958469   -0.1200
15     C15     1.7482   -3.5619   -3.7763 C.ar     1 ZINC000077958469    0.0700
16     N16     0.5181   -4.0324   -4.2518 N.3      1 ZINC000077958469   -0.5000
17     C17    -0.3735   -2.9167   -4.6004 C.3      1 ZINC000077958469    0.0300
18     C18    -1.7243   -3.4737   -5.0578 C.3      1 ZINC000077958469    0.0900
19     H19    -2.1937   -4.0118   -4.2343 H        1 ZINC000077958469    0.0700
20     C20    -2.6298   -2.3213   -5.4971 C.3      1 ZINC000077958469   -0.1500
21     O21    -1.5189   -4.3663   -6.1561 O.3      1 ZINC000077958469   -0.3800
22     C22    -0.6558   -5.4652   -5.8514 C.3      1 ZINC000077958469    0.0900
23     H23    -1.0942   -6.0612   -5.0510 H        1 ZINC000077958469    0.0700
24     C24    -0.4772   -6.3352   -7.0972 C.3      1 ZINC000077958469   -0.1500
25     C25     0.7057   -4.9283   -5.4021 C.3      1 ZINC000077958469    0.0300
26     S26     1.6822   -1.0932    0.1434 S.3      1 ZINC000077958469    0.2200
27     H27     1.3651    1.7971    0.3234 H        1 ZINC000077958469    0.0700
28     H28    -0.2205    1.8914   -0.4798 H        1 ZINC000077958469    0.0900
29     H29    -0.1264    1.7916    1.2949 H        1 ZINC000077958469    0.0900
30     H30    -1.8174   -0.3384    0.3625 H        1 ZINC000077958469    0.1500
31     H31    -1.4433   -2.8517    0.2026 H        1 ZINC000077958469    0.1500
32     H32     0.7618   -5.2806   -1.9705 H        1 ZINC000077958469    0.4300
33     H33     3.6570   -3.5511   -0.9791 H        1 ZINC000077958469    0.1600
34     H34     5.1301   -2.2615   -2.4711 H        1 ZINC000077958469    0.1300
35     H35     4.4452   -1.7995   -4.7871 H        1 ZINC000077958469    0.1300
36     H36     2.2828   -2.6241   -5.6256 H        1 ZINC000077958469    0.1200
37     H37    -0.5189   -2.2804   -3.7274 H        1 ZINC000077958469    0.0900
38     H38     0.0714   -2.3334   -5.4066 H        1 ZINC000077958469    0.0500
39     H39    -2.1605   -1.7845   -6.3216 H        1 ZINC000077958469    0.0600
40     H40    -3.5912   -2.7185   -5.8226 H        1 ZINC000077958469    0.0700
41     H41    -2.7826   -1.6400   -4.6602 H        1 ZINC000077958469    0.0700
42     H42    -0.0374   -5.7390   -7.8967 H        1 ZINC000077958469    0.0600
43     H43     0.1807   -7.1725   -6.8643 H        1 ZINC000077958469    0.0700
44     H44    -1.4476   -6.7139   -7.4181 H        1 ZINC000077958469    0.0700
45     H45     1.1680   -4.3772   -6.2211 H        1 ZINC000077958469    0.0500
46     H46     1.3482   -5.7605   -5.1143 H        1 ZINC000077958469    0.0900
@<TRIPOS>BOND
1     1     2     1
2     1     27    1
3     1     28    1
4     1     29    1
5     2     26    1
6     2     3     2
7     3     4     1
8     3     30    1
9     4     5     2
10    4     31    1
11    5     6     1
12    5     26    1
13    6     7     2
14    6     8     2
15    6     9     am
16    9     10    1
17    9     32    1
18    10    15    ar
19    10    11    ar
20    11    12    ar
21    11    33    1
22    12    13    ar
23    12    34    1
24    13    14    ar
25    13    35    1
26    14    15    ar
27    14    36    1
28    15    16    1
29    16    25    1
30    16    17    1
31    17    18    1
32    17    37    1
33    17    38    1
34    18    19    1
35    18    20    1
36    18    21    1
37    20    39    1
38    20    40    1
39    20    41    1
40    21    22    1
41    22    23    1
42    22    24    1
43    22    25    1
44    24    42    1
45    24    43    1
46    24    44    1
47    25    45    1
48    25    46    1
@<TRIPOS>SUBSTRUCTURE
1   ZINC000077958469 1     RESIDUE    1   A     ZIN   1
@<TRIPOS>MOLECULE
ZINC000078470658
32    33    1     0     0
SMALL
USER_CHARGES
@<TRIPOS>ATOM
1      C1     -0.0173    1.4248    0.0099 C.3      1 ZINC000078470658    0.0200
2      O2      0.0021   -0.0041    0.0020 O.3      1 ZINC000078470658   -0.2800
3      C3      0.6259   -0.6184    1.0416 C.ar     1 ZINC000078470658    0.2400
4      C4      1.2022    0.1384    2.0510 C.ar     1 ZINC000078470658   -0.2300
5      C5      1.8359   -0.4881    3.1069 C.ar     1 ZINC000078470658   -0.0100
6      C6      1.8958   -1.8690    3.1578 C.ar     1 ZINC000078470658   -0.1600
7      Br7     2.7638   -2.7238    4.6041 Br       1 ZINC000078470658   -0.0500
8      C8      1.3212   -2.6259    2.1521 C.ar     1 ZINC000078470658    0.0400
9      C9      0.6821   -2.0036    1.0975 C.ar     1 ZINC000078470658   -0.6500
10     S10    -0.0495   -2.9680   -0.1829 S.o2     1 ZINC000078470658    2.6100
11     O11     0.3976   -2.4099   -1.4109 O.2      1 ZINC000078470658   -1.0100
12     O12     0.1552   -4.3285    0.1726 O.2      1 ZINC000078470658   -1.0300
13     N13    -1.6838   -2.7088   -0.1189 N.pl3    1 ZINC000078470658   -1.0700
14     C14    -2.5258   -3.3489   -1.0234 C.ar     1 ZINC000078470658    0.3100
15     C15    -2.0133   -4.2168   -1.9871 C.ar     1 ZINC000078470658   -0.3200
16     C16    -2.8815   -4.8317   -2.8646 C.ar     1 ZINC000078470658    0.1400
17     N17    -4.1805   -4.6075   -2.7999 N.ar     1 ZINC000078470658   -0.5600
18     C18    -4.7042   -3.7932   -1.9025 C.ar     1 ZINC000078470658    0.1400
19     C19    -6.1952   -3.5758   -1.8756 C.3      1 ZINC000078470658   -0.0900
20     C20    -3.9051   -3.1437   -0.9857 C.ar     1 ZINC000078470658   -0.2300
21     H21     1.0053    1.8021    0.0021 H        1 ZINC000078470658    0.0600
22     H22    -0.5445    1.7859   -0.8732 H        1 ZINC000078470658    0.1100
23     H23    -0.5275    1.7763    0.9067 H        1 ZINC000078470658    0.0600
24     H24     1.1559    1.2167    2.0115 H        1 ZINC000078470658    0.1400
25     H25     2.2851    0.1009    3.8929 H        1 ZINC000078470658    0.1400
26     H26     1.3690   -3.7040    2.1936 H        1 ZINC000078470658    0.1500
27     H27    -0.9513   -4.4044   -2.0458 H        1 ZINC000078470658    0.1000
28     H28    -2.4935   -5.5051   -3.6145 H        1 ZINC000078470658    0.1300
29     H29    -6.6576   -4.3098   -1.2156 H        1 ZINC000078470658    0.0700
30     H30    -6.4094   -2.5718   -1.5091 H        1 ZINC000078470658    0.0600
31     H31    -6.5971   -3.6885   -2.8825 H        1 ZINC000078470658    0.0600
32     H32    -4.3400   -2.4788   -0.2542 H        1 ZINC000078470658    0.1200
@<TRIPOS>BOND
1     1     2     1
2     1     21    1
3     1     22    1
4     1     23    1
5     2     3     1
6     3     9     ar
7     3     4     ar
8     4     5     ar
9     4     24    1
10    5     6     ar
11    5     25    1
12    6     7     1
13    6     8     ar
14    8     9     ar
15    8     26    1
16    9     10    1
17    10    11    2
18    10    12    2
19    10    13    1
20    13    14    1
21    14    20    ar
22    14    15    ar
23    15    16    ar
24    15    27    1
25    16    17    ar
26    16    28    1
27    17    18    ar
28    18    19    1
29    18    20    ar
30    19    29    1
31    19    30    1
32    19    31    1
33    20    32    1
@<TRIPOS>SUBSTRUCTURE
1   ZINC000078470658 1     RESIDUE    1   A     ZIN   1

@<TRIPOS>MOLECULE
ZINC000078470658
34    35    1     0     0
SMALL
USER_CHARGES
@<TRIPOS>ATOM
1      C1     -0.1347    1.5216    0.2479 C.3      1 ZINC000078470658    0.0200
2      O2     -0.0799    0.0952    0.1818 O.3      1 ZINC000078470658   -0.3100
3      C3      0.5633   -0.5451    1.1936 C.ar     1 ZINC000078470658    0.2400
4      C4      1.0339    0.1738    2.2824 C.ar     1 ZINC000078470658   -0.2200
5      C5      1.6876   -0.4790    3.3097 C.ar     1 ZINC000078470658    0.0100
6      C6      1.8727   -1.8486    3.2531 C.ar     1 ZINC000078470658   -0.1500
7      Br7     2.7677   -2.7394    4.6606 Br       1 ZINC000078470658   -0.0200
8      C8      1.4036   -2.5677    2.1680 C.ar     1 ZINC000078470658    0.0400
9      C9      0.7450   -1.9197    1.1414 C.ar     1 ZINC000078470658   -0.7200
10     S10     0.1479   -2.8361   -0.2401 S.o2     1 ZINC000078470658    2.6900
11     O11     0.6085   -2.1580   -1.4008 O.2      1 ZINC000078470658   -0.9000
12     O12     0.4370   -4.2011    0.0287 O.2      1 ZINC000078470658   -0.9300
13     N13    -1.5024   -2.6993   -0.2426 N.am     1 ZINC000078470658   -1.0500
14     C14    -2.2447   -3.2108    0.8176 C.ar     1 ZINC000078470658    0.2900
15     C15    -1.9770   -4.4790    1.3322 C.ar     1 ZINC000078470658   -0.1800
16     C16    -2.7354   -4.9492    2.3838 C.ar     1 ZINC000078470658    0.1700
17     N17    -3.7027   -4.2155    2.9017 N.ar     1 ZINC000078470658   -0.4600
18     H18    -4.2196   -4.5718    3.6411 H        1 ZINC000078470658    0.4500
19     C19    -3.9867   -3.0108    2.4427 C.ar     1 ZINC000078470658    0.1900
20     C20    -5.1024   -2.2183    3.0739 C.3      1 ZINC000078470658   -0.1500
21     C21    -3.2720   -2.4660    1.3971 C.ar     1 ZINC000078470658   -0.1500
22     H22     0.8757    1.9202    0.3394 H        1 ZINC000078470658    0.0700
23     H23    -0.5977    1.9098   -0.6593 H        1 ZINC000078470658    0.1200
24     H24    -0.7239    1.8228    1.1140 H        1 ZINC000078470658    0.0700
25     H25     0.8899    1.2433    2.3268 H        1 ZINC000078470658    0.1500
26     H26     2.0545    0.0805    4.1575 H        1 ZINC000078470658    0.1500
27     H27     1.5492   -3.6370    2.1257 H        1 ZINC000078470658    0.1600
28     H28    -1.9518   -2.2627   -0.9831 H        1 ZINC000078470658    0.4500
29     H29    -1.1872   -5.0846    0.9129 H        1 ZINC000078470658    0.2100
30     H30    -2.5355   -5.9303    2.7886 H        1 ZINC000078470658    0.2200
31     H31    -4.7036   -1.6166    3.8907 H        1 ZINC000078470658    0.1200
32     H32    -5.5514   -1.5643    2.3265 H        1 ZINC000078470658    0.1200
33     H33    -5.8589   -2.9008    3.4611 H        1 ZINC000078470658    0.1000
34     H34    -3.5096   -1.4798    1.0265 H        1 ZINC000078470658    0.1900
@<TRIPOS>BOND
1     1     2     1
2     1     22    1
3     1     23    1
4     1     24    1
5     2     3     1
6     3     9     ar
7     3     4     ar
8     4     5     ar
9     4     25    1
10    5     6     ar
11    5     26    1
12    6     7     1
13    6     8     ar
14    8     9     ar
15    8     27    1
16    9     10    1
17    10    11    2
18    10    12    2
19    10    13    am
20    13    14    1
21    13    28    1
22    14    21    ar
23    14    15    ar
24    15    16    ar
25    15    29    1
26    16    17    ar
27    16    30    1
28    17    18    1
29    17    19    ar
30    19    20    1
31    19    21    ar
32    20    31    1
33    20    32    1
34    20    33    1
35    21    34    1
@<TRIPOS>SUBSTRUCTURE
1   ZINC000078470658 1     RESIDUE    1   A     ZIN   1
@<TRIPOS>MOLECULE
ZINC000078535957
46    49    1     0     0
SMALL
USER_CHARGES
@<TRIPOS>ATOM
1      C1     -0.0178    1.4608    0.0101 C.3      1 ZINC000078535957    0.0800
2      N2      0.0021   -0.0041    0.0020 N.am     1 ZINC000078535957   -0.4900
3      C3      0.0082   -0.7872   -1.0953 C.2      1 ZINC000078535957    0.4700
4      S4     -0.0060   -0.2530   -2.7218 S.2      1 ZINC000078535957   -0.5700
5      N5      0.0282   -2.0696   -0.6757 N.am     1 ZINC000078535957   -0.4700
6      N6      0.0341   -2.0493    0.7258 N.2      1 ZINC000078535957   -0.2700
7      C7      0.0236   -0.8138    1.1109 C.2      1 ZINC000078535957    0.2800
8      C8      0.0260   -0.3412    2.5418 C.3      1 ZINC000078535957   -0.0100
9      C9     -1.4118   -0.0742    2.9930 C.3      1 ZINC000078535957   -0.1300
10     C10    -1.4029    0.4389    4.4364 C.3      1 ZINC000078535957    0.1200
11     N11    -0.6759   -0.5231    5.2758 N.am     1 ZINC000078535957   -0.6100
12     C12    -1.2448   -1.0330    6.3862 C.2      1 ZINC000078535957    0.5400
13     O13    -2.3673   -0.6983    6.7008 O.2      1 ZINC000078535957   -0.5100
14     C14    -0.4862   -2.0188    7.2368 C.3      1 ZINC000078535957   -0.1900
15     H15     0.5906   -1.8593    7.2942 H        1 ZINC000078535957    0.1300
16     C16    -0.9886   -3.4638    7.2618 C.3      1 ZINC000078535957   -0.1500
17     C17    -1.1872   -2.5627    8.4832 C.3      1 ZINC000078535957   -0.0800
18     H18    -0.5718   -2.7614    9.3606 H        1 ZINC000078535957    0.1300
19     C19    -2.5838   -2.0724    8.7665 C.ar     1 ZINC000078535957   -0.0600
20     C20    -3.5930   -2.2935    7.8478 C.ar     1 ZINC000078535957   -0.0300
21     C21    -4.8741   -1.8443    8.1065 C.ar     1 ZINC000078535957   -0.1600
22     C22    -5.1468   -1.1731    9.2864 C.ar     1 ZINC000078535957    0.1000
23     F23    -6.3989   -0.7340    9.5405 F        1 ZINC000078535957   -0.1400
24     C24    -4.1353   -0.9527   10.2059 C.ar     1 ZINC000078535957   -0.1600
25     C25    -2.8560   -1.4070    9.9473 C.ar     1 ZINC000078535957   -0.0800
26     C26     0.6829   -0.9192    4.8815 C.3      1 ZINC000078535957    0.1100
27     C27     0.6506   -1.4171    3.4331 C.3      1 ZINC000078535957   -0.1200
28     H28     1.0048    1.8381    0.0023 H        1 ZINC000078535957    0.0900
29     H29    -0.5450    1.8219   -0.8730 H        1 ZINC000078535957    0.1100
30     H30    -0.5280    1.8123    0.9069 H        1 ZINC000078535957    0.1000
31     H31     0.0363   -2.8589   -1.2394 H        1 ZINC000078535957    0.4700
32     H32     0.6074    0.5775    2.6199 H        1 ZINC000078535957    0.1100
33     H33    -1.8637    0.6753    2.3433 H        1 ZINC000078535957    0.0800
34     H34    -1.9876   -0.9981    2.9389 H        1 ZINC000078535957    0.0800
35     H35    -0.9055    1.4080    4.4767 H        1 ZINC000078535957    0.0700
36     H36    -2.4273    0.5365    4.7959 H        1 ZINC000078535957    0.1000
37     H37    -1.8679   -3.7013    6.6630 H        1 ZINC000078535957    0.1000
38     H38    -0.2424   -4.2549    7.3361 H        1 ZINC000078535957    0.1100
39     H39    -3.3801   -2.8170    6.9275 H        1 ZINC000078535957    0.1200
40     H40    -5.6622   -2.0165    7.3884 H        1 ZINC000078535957    0.1300
41     H41    -4.3468   -0.4290   11.1265 H        1 ZINC000078535957    0.1300
42     H42    -2.0670   -1.2356   10.6645 H        1 ZINC000078535957    0.1300
43     H43     1.3504   -0.0610    4.9580 H        1 ZINC000078535957    0.0800
44     H44     1.0348   -1.7178    5.5346 H        1 ZINC000078535957    0.1000
45     H45     0.0554   -2.3284    3.3748 H        1 ZINC000078535957    0.0900
46     H46     1.6666   -1.6235    3.0966 H        1 ZINC000078535957    0.0900
@<TRIPOS>BOND
1     1     2     1
2     1     28    1
3     1     29    1
4     1     30    1
5     2     7     1
6     2     3     am
7     3     4     2
8     3     5     am
9     5     6     1
10    5     31    1
11    6     7     2
12    7     8     1
13    8     27    1
14    8     9     1
15    8     32    1
16    9     10    1
17    9     33    1
18    9     34    1
19    10    11    1
20    10    35    1
21    10    36    1
22    11    12    am
23    11    26    1
24    12    13    2
25    12    14    1
26    14    15    1
27    14    17    1
28    14    16    1
29    16    17    1
30    16    37    1
31    16    38    1
32    17    18    1
33    17    19    1
34    19    25    ar
35    19    20    ar
36    20    21    ar
37    20    39    1
38    21    22    ar
39    21    40    1
40    22    23    1
41    22    24    ar
42    24    25    ar
43    24    41    1
44    25    42    1
45    26    27    1
46    26    43    1
47    26    44    1
48    27    45    1
49    27    46    1
@<TRIPOS>SUBSTRUCTURE
1   ZINC000078535957 1     RESIDUE    1   A     ZIN   1

@<TRIPOS>MOLECULE
ZINC000078535957
45    48    1     0     0
SMALL
USER_CHARGES
@<TRIPOS>ATOM
1      C1     -0.0178    1.4608    0.0101 C.3      1 ZINC000078535957    0.0900
2      N2      0.0021   -0.0041    0.0020 N.am     1 ZINC000078535957   -0.5100
3      C3      0.0082   -0.7872   -1.0953 C.2      1 ZINC000078535957    0.3900
4      S4     -0.0060   -0.2530   -2.7218 S.2      1 ZINC000078535957   -0.7900
5      N5      0.0282   -2.0696   -0.6757 N.pl3    1 ZINC000078535957   -0.3900
6      N6      0.0341   -2.0493    0.7258 N.2      1 ZINC000078535957   -0.3300
7      C7      0.0236   -0.8138    1.1109 C.2      1 ZINC000078535957    0.1700
8      C8      0.0260   -0.3412    2.5418 C.3      1 ZINC000078535957    0.0100
9      C9     -1.4118   -0.0742    2.9930 C.3      1 ZINC000078535957   -0.1300
10     C10    -1.4029    0.4389    4.4364 C.3      1 ZINC000078535957    0.1200
11     N11    -0.6759   -0.5231    5.2758 N.am     1 ZINC000078535957   -0.6100
12     C12    -1.2448   -1.0330    6.3862 C.2      1 ZINC000078535957    0.5400
13     O13    -2.3673   -0.6983    6.7008 O.2      1 ZINC000078535957   -0.5300
14     C14    -0.4862   -2.0188    7.2368 C.3      1 ZINC000078535957   -0.1800
15     H15     0.5906   -1.8593    7.2942 H        1 ZINC000078535957    0.1300
16     C16    -0.9886   -3.4638    7.2618 C.3      1 ZINC000078535957   -0.1400
17     C17    -1.1872   -2.5627    8.4832 C.3      1 ZINC000078535957   -0.0800
18     H18    -0.5718   -2.7614    9.3606 H        1 ZINC000078535957    0.1200
19     C19    -2.5838   -2.0724    8.7665 C.ar     1 ZINC000078535957   -0.0600
20     C20    -3.5930   -2.2935    7.8478 C.ar     1 ZINC000078535957   -0.0200
21     C21    -4.8741   -1.8443    8.1065 C.ar     1 ZINC000078535957   -0.1600
22     C22    -5.1468   -1.1731    9.2864 C.ar     1 ZINC000078535957    0.0900
23     F23    -6.3989   -0.7340    9.5405 F        1 ZINC000078535957   -0.1500
24     C24    -4.1353   -0.9527   10.2059 C.ar     1 ZINC000078535957   -0.1600
25     C25    -2.8560   -1.4070    9.9473 C.ar     1 ZINC000078535957   -0.0800
26     C26     0.6829   -0.9192    4.8815 C.3      1 ZINC000078535957    0.1100
27     C27     0.6506   -1.4171    3.4331 C.3      1 ZINC000078535957   -0.1200
28     H28     1.0048    1.8381    0.0023 H        1 ZINC000078535957    0.0600
29     H29    -0.5450    1.8219   -0.8730 H        1 ZINC000078535957    0.0900
30     H30    -0.5280    1.8123    0.9069 H        1 ZINC000078535957    0.0700
31     H31     0.6074    0.5775    2.6199 H        1 ZINC000078535957    0.0800
32     H32    -1.8637    0.6753    2.3433 H        1 ZINC000078535957    0.0800
33     H33    -1.9876   -0.9981    2.9389 H        1 ZINC000078535957    0.0700
34     H34    -0.9055    1.4080    4.4767 H        1 ZINC000078535957    0.0700
35     H35    -2.4273    0.5365    4.7959 H        1 ZINC000078535957    0.0900
36     H36    -1.8679   -3.7013    6.6630 H        1 ZINC000078535957    0.1000
37     H37    -0.2424   -4.2549    7.3361 H        1 ZINC000078535957    0.1100
38     H38    -3.3801   -2.8170    6.9275 H        1 ZINC000078535957    0.1200
39     H39    -5.6622   -2.0165    7.3884 H        1 ZINC000078535957    0.1300
40     H40    -4.3468   -0.4290   11.1265 H        1 ZINC000078535957    0.1300
41     H41    -2.0670   -1.2356   10.6645 H        1 ZINC000078535957    0.1300
42     H42     1.3504   -0.0610    4.9580 H        1 ZINC000078535957    0.0700
43     H43     1.0348   -1.7178    5.5346 H        1 ZINC000078535957    0.0900
44     H44     0.0554   -2.3284    3.3748 H        1 ZINC000078535957    0.0800
45     H45     1.6666   -1.6235    3.0966 H        1 ZINC000078535957    0.0800
@<TRIPOS>BOND
1     1     2     1
2     1     28    1
3     1     29    1
4     1     30    1
5     2     7     1
6     2     3     am
7     3     4     2
8     3     5     1
9     5     6     1
10    6     7     2
11    7     8     1
12    8     27    1
13    8     9     1
14    8     31    1
15    9     10    1
16    9     32    1
17    9     33    1
18    10    11    1
19    10    34    1
20    10    35    1
21    11    12    am
22    11    26    1
23    12    13    2
24    12    14    1
25    14    15    1
26    14    17    1
27    14    16    1
28    16    17    1
29    16    36    1
30    16    37    1
31    17    18    1
32    17    19    1
33    19    25    ar
34    19    20    ar
35    20    21    ar
36    20    38    1
37    21    22    ar
38    21    39    1
39    22    23    1
40    22    24    ar
41    24    25    ar
42    24    40    1
43    25    41    1
44    26    27    1
45    26    42    1
46    26    43    1
47    27    44    1
48    27    45    1
@<TRIPOS>SUBSTRUCTURE
1   ZINC000078535957 1     RESIDUE    1   A     ZIN   1
@<TRIPOS>MOLECULE
ZINC000078674363
50    52    1     0     0
SMALL
USER_CHARGES
@<TRIPOS>ATOM
1      C1      1.3925    0.9319   -0.6459 C.3      1 ZINC000078674363   -0.0800
2      C2      1.3953   -0.5554   -0.4027 C.2      1 ZINC000078674363    0.0600
3      C3      1.8396   -1.4347   -1.3057 C.2      1 ZINC000078674363   -0.2600
4      S4      1.6651   -3.0492   -0.6218 S.3      1 ZINC000078674363    0.1100
5      C5      1.0122   -2.3813    0.8102 C.2      1 ZINC000078674363    0.0200
6      C6      0.5628   -3.1790    2.0072 C.3      1 ZINC000078674363    0.2700
7      N7      1.3860   -2.8562    3.1753 N.am     1 ZINC000078674363   -1.1100
8      S8      1.2899   -1.3545    3.8666 S.o2     1 ZINC000078674363    2.7600
9      O9      2.5182   -1.1482    4.5506 O.2      1 ZINC000078674363   -0.9800
10     O10     0.8054   -0.4787    2.8579 O.2      1 ZINC000078674363   -0.9200
11     N11     0.1131   -1.4246    5.0296 N.am     1 ZINC000078674363   -1.0100
12     C12    -1.2104   -0.8325    4.7921 C.3      1 ZINC000078674363    0.1200
13     C13    -2.2810   -1.8958    5.0568 C.3      1 ZINC000078674363   -0.1300
14     H14    -2.1870   -2.6971    4.3239 H        1 ZINC000078674363    0.0900
15     C15    -3.6690   -1.2618    4.9450 C.3      1 ZINC000078674363   -0.1500
16     C16    -2.0910   -2.4660    6.4642 C.3      1 ZINC000078674363   -0.1100
17     C17    -0.7156   -3.1294    6.5663 C.3      1 ZINC000078674363   -0.1100
18     H18    -0.6363   -3.9191    5.8191 H        1 ZINC000078674363    0.0800
19     C19    -0.5400   -3.7285    7.9631 C.3      1 ZINC000078674363   -0.1500
20     C20     0.3707   -2.0855    6.3163 C.3      1 ZINC000078674363    0.1300
21     C21    -0.9338   -2.9131    2.3050 C.3      1 ZINC000078674363   -0.1300
22     C22    -1.3572   -4.1814    3.0868 C.3      1 ZINC000078674363   -0.1300
23     C23    -0.5953   -5.3275    2.3899 C.3      1 ZINC000078674363   -0.1200
24     C24     0.6255   -4.6901    1.7034 C.3      1 ZINC000078674363   -0.1200
25     N25     0.9651   -1.0950    0.7199 N.2      1 ZINC000078674363   -0.3900
26     H26     2.3384    1.3568   -0.3099 H        1 ZINC000078674363    0.0700
27     H27     1.2651    1.1256   -1.7110 H        1 ZINC000078674363    0.0700
28     H28     0.5720    1.3889   -0.0928 H        1 ZINC000078674363    0.0800
29     H29     2.2356   -1.1977   -2.2821 H        1 ZINC000078674363    0.1800
30     H30     1.9873   -3.5222    3.5438 H        1 ZINC000078674363    0.4100
31     H31    -1.3593    0.0115    5.4656 H        1 ZINC000078674363    0.0700
32     H32    -1.2791   -0.4942    3.7582 H        1 ZINC000078674363    0.1000
33     H33    -3.8024   -0.8537    3.9432 H        1 ZINC000078674363    0.0600
34     H34    -4.4304   -2.0187    5.1335 H        1 ZINC000078674363    0.0600
35     H35    -3.7630   -0.4613    5.6789 H        1 ZINC000078674363    0.0600
36     H36    -2.1605   -1.6602    7.1949 H        1 ZINC000078674363    0.0600
37     H37    -2.8665   -3.2053    6.6643 H        1 ZINC000078674363    0.0700
38     H38    -1.3163   -4.4731    8.1393 H        1 ZINC000078674363    0.0600
39     H39     0.4396   -4.2010    8.0353 H        1 ZINC000078674363    0.0600
40     H40    -0.6182   -2.9383    8.7098 H        1 ZINC000078674363    0.0600
41     H41     1.3458   -2.5719    6.2900 H        1 ZINC000078674363    0.0800
42     H42     0.3526   -1.3415    7.1127 H        1 ZINC000078674363    0.0700
43     H43    -1.0527   -2.0218    2.9211 H        1 ZINC000078674363    0.0900
44     H44    -1.5017   -2.8225    1.3791 H        1 ZINC000078674363    0.0900
45     H45    -1.0567   -4.1035    4.1317 H        1 ZINC000078674363    0.0800
46     H46    -2.4334   -4.3359    3.0089 H        1 ZINC000078674363    0.0800
47     H47    -0.2686   -6.0610    3.1269 H        1 ZINC000078674363    0.0700
48     H48    -1.2352   -5.8036    1.6469 H        1 ZINC000078674363    0.0700
49     H49     0.5781   -4.8569    0.6273 H        1 ZINC000078674363    0.0800
50     H50     1.5447   -5.1144    2.1073 H        1 ZINC000078674363    0.0800
@<TRIPOS>BOND
1     1     2     1
2     1     26    1
3     1     27    1
4     1     28    1
5     2     25    1
6     2     3     2
7     3     4     1
8     3     29    1
9     4     5     1
10    5     6     1
11    5     25    2
12    6     24    1
13    6     7     1
14    6     21    1
15    7     8     am
16    7     30    1
17    8     9     2
18    8     10    2
19    8     11    am
20    11    20    1
21    11    12    1
22    12    13    1
23    12    31    1
24    12    32    1
25    13    14    1
26    13    15    1
27    13    16    1
28    15    33    1
29    15    34    1
30    15    35    1
31    16    17    1
32    16    36    1
33    16    37    1
34    17    18    1
35    17    19    1
36    17    20    1
37    19    38    1
38    19    39    1
39    19    40    1
40    20    41    1
41    20    42    1
42    21    22    1
43    21    43    1
44    21    44    1
45    22    23    1
46    22    45    1
47    22    46    1
48    23    24    1
49    23    47    1
50    23    48    1
51    24    49    1
52    24    50    1
@<TRIPOS>SUBSTRUCTURE
1   ZINC000078674363 1     RESIDUE    1   A     ZIN   1
@<TRIPOS>MOLECULE
ZINC000005895375
  50   53    0    0    0
SMALL
USER_CHARGES
NO_NAME
@<TRIPOS>ATOM
    1 C1       -0.4976     1.2756     0.5824 C.3    1 <0>      -0.0800
    2 C2       -0.3262    -0.2159     0.4511 C.2    1 <0>       0.0400
    3 C3       -0.3638    -0.9097    -0.7017 C.2    1 <0>      -0.1800
    4 C4       -0.1502    -2.3160    -0.3498 C.2    1 <0>      -0.1500
    5 C5       -0.1062    -3.4631    -1.2757 C.2    1 <0>       0.2100
    6 N6        0.0881    -4.6110    -0.7584 N.2    1 <0>      -0.2700
    7 N7        0.1869    -5.8254    -1.4372 N.pl3  1 <0>      -0.5800
    8 C8       -0.0776    -5.8622    -2.7967 C.2    1 <0>       0.3500
    9 N9       -0.7062    -6.8707    -3.3591 N.2    1 <0>      -0.4700
   10 C10      -1.2240    -7.8726    -2.5836 C.ar   1 <0>       0.0800
   11 C11      -2.0737    -7.5671    -1.5181 C.ar   1 <0>      -0.1300
   12 C12      -2.5923    -8.5819    -0.7410 C.ar   1 <0>      -0.1100
   13 C13      -2.2725    -9.9000    -1.0149 C.ar   1 <0>      -0.1200
   14 C14      -1.4312   -10.2099    -2.0689 C.ar   1 <0>      -0.1100
   15 C15      -0.9096    -9.2056    -2.8576 C.ar   1 <0>      -0.1100
   16 S16       0.4844    -4.4632    -3.7304 S.3    1 <0>      -0.0500
   17 C17      -0.3008    -3.1635    -2.7330 C.3    1 <0>      -0.1000
   18 C18       0.0005    -2.3516     1.0066 C.2    1 <0>       0.0800
   19 C19       0.2440    -3.5862     1.8358 C.3    1 <0>      -0.0900
   20 N20      -0.1020    -1.0816     1.4800 N.pl3  1 <0>      -0.4400
   21 C21       0.0048    -0.7001     2.8904 C.3    1 <0>       0.0900
   22 C22       1.4658    -0.3948     3.2270 C.3    1 <0>       0.0700
   23 H23       2.0936    -1.2420     2.9506 H      1 <0>       0.0900
   24 C24       1.6067    -0.1094     4.7376 C.3    1 <0>      -0.1500
   25 C25       2.6357     1.0536     4.7588 C.3    1 <0>      -0.1600
   26 C26       2.2563     1.8057     3.4583 C.3    1 <0>       0.0500
   27 O27       1.8924     0.7766     2.5217 O.3    1 <0>      -0.3700
   28 H28       0.4745     1.7617     0.4996 H      1 <0>       0.0800
   29 H29      -1.1532     1.6371    -0.2099 H      1 <0>       0.0800
   30 H30      -0.9380     1.5068     1.5522 H      1 <0>       0.0600
   31 H31      -0.5209    -0.5084    -1.6920 H      1 <0>       0.1400
   32 H32       0.4378    -6.6338    -0.9635 H      1 <0>       0.4300
   33 H33      -2.3239    -6.5388    -1.3030 H      1 <0>       0.1200
   34 H34      -3.2493    -8.3471     0.0835 H      1 <0>       0.1200
   35 H35      -2.6811   -10.6905    -0.4030 H      1 <0>       0.1200
   36 H36      -1.1857   -11.2408    -2.2771 H      1 <0>       0.1300
   37 H37      -0.2534    -9.4489    -3.6801 H      1 <0>       0.1300
   38 H38      -1.3658    -3.1244    -2.9616 H      1 <0>       0.1200
   39 H39       0.1554    -2.2015    -2.9665 H      1 <0>       0.1400
   40 H40       1.3167    -3.7574     1.9261 H      1 <0>       0.0700
   41 H41      -0.1867    -3.4485     2.8276 H      1 <0>       0.0600
   42 H42      -0.2218    -4.4456     1.3535 H      1 <0>       0.1000
   43 H43      -0.6031     0.1858     3.0742 H      1 <0>       0.1000
   44 H44      -0.3486    -1.5195     3.5163 H      1 <0>       0.1000
   45 H45       0.6544     0.2074     5.1630 H      1 <0>       0.0800
   46 H46       1.9963    -0.9817     5.2625 H      1 <0>       0.0900
   47 H47       2.4945     1.6872     5.6344 H      1 <0>       0.0900
   48 H48       3.6569     0.6756     4.7102 H      1 <0>       0.0800
   49 H49       1.4113     2.4703     3.6384 H      1 <0>       0.0600
   50 H50       3.1104     2.3709     3.0852 H      1 <0>       0.0900
@<TRIPOS>BOND
   1    1    2 1
   2    1   28 1
   3    1   29 1
   4    1   30 1
   5    2   20 1
   6    2    3 2
   7    3    4 1
   8    3   31 1
   9    4    5 1
  10    4   18 2
  11    5   17 1
  12    5    6 2
  13    6    7 1
  14    7    8 1
  15    7   32 1
  16    8    9 2
  17    8   16 1
  18    9   10 1
  19   10   15 ar
  20   10   11 ar
  21   11   12 ar
  22   11   33 1
  23   12   13 ar
  24   12   34 1
  25   13   14 ar
  26   13   35 1
  27   14   15 ar
  28   14   36 1
  29   15   37 1
  30   16   17 1
  31   17   38 1
  32   17   39 1
  33   18   19 1
  34   18   20 1
  35   19   40 1
  36   19   41 1
  37   19   42 1
  38   20   21 1
  39   21   22 1
  40   21   43 1
  41   21   44 1
  42   22   23 1
  43   22   27 1
  44   22   24 1
  45   24   25 1
  46   24   45 1
  47   24   46 1
  48   25   26 1
  49   25   47 1
  50   25   48 1
  51   26   27 1
  52   26   49 1
  53   26   50 1
@<TRIPOS>MOLECULE
ZINC000095389749
  46   48    0    0    0
SMALL
USER_CHARGES
NO_NAME
@<TRIPOS>ATOM
    1 C1       -1.8015    -9.4398    -0.0172 C.3    1 <0>      -0.1500
    2 C2       -2.2341    -8.0284    -0.4194 C.3    1 <0>       0.0600
    3 H3       -1.8192    -7.7853    -1.3975 H      1 <0>       0.0800
    4 C4       -1.7240    -7.0215     0.6178 C.3    1 <0>       0.0800
    5 N5       -2.3074    -5.7054     0.3130 N.am   1 <0>      -1.0100
    6 S6       -1.3540    -4.3563     0.1979 S.o2   1 <0>       2.7700
    7 O7       -2.2156    -3.2399     0.3730 O.2    1 <0>      -0.9700
    8 O8       -0.2176    -4.5969     1.0164 O.2    1 <0>      -0.9500
    9 N9       -0.7997    -4.2792    -1.3607 N.am   1 <0>      -1.1100
   10 C10       0.4197    -4.9967    -1.7408 C.3    1 <0>       0.2000
   11 C11       1.6403    -4.5069    -1.0049 C.ar   1 <0>      -0.0700
   12 C12       2.7945    -5.2677    -0.9981 C.ar   1 <0>      -0.1000
   13 C13       3.9142    -4.8190    -0.3233 C.ar   1 <0>      -0.1100
   14 C14       3.8797    -3.6083     0.3453 C.ar   1 <0>      -0.0300
   15 Cl15      5.2859    -3.0438     1.1925 Cl     1 <0>      -0.0700
   16 C16       2.7243    -2.8473     0.3380 C.ar   1 <0>      -0.1000
   17 C17       1.6070    -3.2944    -0.3418 C.ar   1 <0>      -0.0800
   18 C18       0.2635    -6.5265    -1.7289 C.3    1 <0>      -0.1800
   19 C19      -0.1900    -6.4129    -3.1939 C.3    1 <0>      -0.1400
   20 C20       0.6205    -5.1077    -3.2614 C.3    1 <0>      -0.1200
   21 C21      -3.7631    -5.6234     0.1139 C.3    1 <0>       0.0900
   22 C22      -4.1739    -6.6985    -0.8987 C.3    1 <0>       0.0800
   23 H23      -5.2612    -6.7472    -0.9570 H      1 <0>       0.1200
   24 C24      -3.6034    -6.3491    -2.2747 C.3    1 <0>      -0.2000
   25 O25      -3.6611    -7.9645    -0.4767 O.3    1 <0>      -0.3600
   26 H26      -2.1661   -10.1554    -0.7541 H      1 <0>       0.0700
   27 H27      -0.7135    -9.4873     0.0281 H      1 <0>       0.0800
   28 H28      -2.2168    -9.6822     0.9611 H      1 <0>       0.0700
   29 H29      -2.0291    -7.3360     1.6159 H      1 <0>       0.0900
   30 H30      -0.6368    -6.9616     0.5676 H      1 <0>       0.1000
   31 H31      -1.2825    -3.7591    -2.0220 H      1 <0>       0.4200
   32 H32       2.8212    -6.2130    -1.5197 H      1 <0>       0.1300
   33 H33       4.8158    -5.4136    -0.3177 H      1 <0>       0.1400
   34 H34       2.6967    -1.9022     0.8600 H      1 <0>       0.1300
   35 H35       0.7051    -2.7003    -0.3478 H      1 <0>       0.1100
   36 H36       1.2054    -7.0606    -1.6036 H      1 <0>       0.1100
   37 H37      -0.5177    -6.8804    -1.0562 H      1 <0>       0.0900
   38 H38       0.2009    -7.2033    -3.8346 H      1 <0>       0.0800
   39 H39      -1.2641    -6.2662    -3.3084 H      1 <0>       0.0900
   40 H40       0.1275    -4.3163    -3.8259 H      1 <0>       0.0800
   41 H41       1.6600    -5.2540    -3.5551 H      1 <0>       0.1000
   42 H42      -4.2735    -5.7972     1.0612 H      1 <0>       0.0800
   43 H43      -4.0262    -4.6378    -0.2700 H      1 <0>       0.1000
   44 H44      -2.5302    -6.1785    -2.1904 H      1 <0>       0.0700
   45 H45      -3.7873    -7.1731    -2.9642 H      1 <0>       0.0700
   46 H46      -4.0864    -5.4468    -2.6498 H      1 <0>       0.0700
@<TRIPOS>BOND
   1    1    2 1
   2    1   26 1
   3    1   27 1
   4    1   28 1
   5    2    3 1
   6    2   25 1
   7    2    4 1
   8    4    5 1
   9    4   29 1
  10    4   30 1
  11    5    6 am
  12    5   21 1
  13    6    7 2
  14    6    8 2
  15    6    9 am
  16    9   10 1
  17    9   31 1
  18   10   20 1
  19   10   11 1
  20   10   18 1
  21   11   17 ar
  22   11   12 ar
  23   12   13 ar
  24   12   32 1
  25   13   14 ar
  26   13   33 1
  27   14   15 1
  28   14   16 ar
  29   16   17 ar
  30   16   34 1
  31   17   35 1
  32   18   19 1
  33   18   36 1
  34   18   37 1
  35   19   20 1
  36   19   38 1
  37   19   39 1
  38   20   40 1
  39   20   41 1
  40   21   22 1
  41   21   42 1
  42   21   43 1
  43   22   23 1
  44   22   24 1
  45   22   25 1
  46   24   44 1
  47   24   45 1
  48   24   46 1
@<TRIPOS>MOLECULE
ZINC000064946764
  36   38    0    0    0
SMALL
NO_CHARGES
@<TRIPOS>ATOM
   1 C1            -5.4081    -5.6406    -0.2949 C.3     
   2 C2            -3.9547    -5.2487    -0.2225 C.ar    
   3 C3            -3.6003    -3.9126    -0.2108 C.ar    
   4 C4            -2.2691    -3.5498    -0.1445 C.ar    
   5 C5            -1.2854    -4.5289    -0.0895 C.ar    
   6 N6             0.0613    -4.1648    -0.0219 N.am    
   7 S7             1.0646    -4.9022     1.0699 S.o2    
   8 O8             0.9049    -6.3014     0.8802 O.2     
   9 O9             2.3194    -4.2427     0.9709 O.2     
  10 C10            0.4394    -4.5436     2.6777 C.ar    
  11 C11            0.7811    -3.3617     3.3117 C.ar    
  12 C12            0.2993    -3.0699     4.5666 C.ar    
  13 C13           -0.5504    -3.9646     5.2345 C.ar    
  14 C14           -0.8828    -5.1506     4.5781 C.ar    
  15 C15           -0.4006    -5.4373     3.3140 C.ar    
  16 S16           -1.9492    -6.0364     5.6768 S.3     
  17 C17           -1.9058    -4.8024     6.9471 C.2     
  18 O18           -2.4780    -4.8374     8.0208 O.2     
  19 N19           -1.1174    -3.8254     6.4885 N.am    
  20 C20           -0.8587    -2.6318     7.2976 C.3     
  21 C21           -1.6438    -5.8709    -0.1013 C.ar    
  22 C22           -2.9777    -6.2275    -0.1621 C.ar    
  23 Cl23          -3.4275    -7.9041    -0.1764 Cl      
  24 H24           -5.8122    -5.7254     0.7139 H       
  25 H25           -5.9623    -4.8805    -0.8456 H       
  26 H26           -5.5009    -6.5992    -0.8053 H       
  27 H27           -4.3652    -3.1513    -0.2539 H       
  28 H28           -1.9934    -2.5056    -0.1357 H       
  29 H29            0.4089    -3.4800    -0.6145 H       
  30 H30            1.4345    -2.6597     2.8150 H       
  31 H31            0.5784    -2.1419     5.0432 H       
  32 H32           -0.6737    -6.3624     2.8281 H       
  33 H33           -1.3921    -2.7123     8.2447 H       
  34 H34            0.2110    -2.5475     7.4890 H       
  35 H35           -1.2026    -1.7476     6.7609 H       
  36 H36           -0.8814    -6.6346    -0.0587 H       
@<TRIPOS>BOND
   1    1    2 1
   2    1   24 1
   3    1   25 1
   4    1   26 1
   5    2   22 ar
   6    2    3 ar
   7    3    4 ar
   8    3   27 1
   9    4    5 ar
  10    4   28 1
  11    5    6 1
  12    5   21 ar
  13    6    7 am
  14    6   29 1
  15    7    8 2
  16    7    9 2
  17    7   10 1
  18   10   15 ar
  19   10   11 ar
  20   11   12 ar
  21   11   30 1
  22   12   13 ar
  23   12   31 1
  24   13   19 1
  25   13   14 ar
  26   14   15 ar
  27   14   16 1
  28   15   32 1
  29   16   17 1
  30   17   18 2
  31   17   19 am
  32   19   20 1
  33   20   33 1
  34   20   34 1
  35   20   35 1
  36   21   22 ar
  37   21   36 1
  38   22   23 1

@<TRIPOS>MOLECULE
ZINC000064946764
  35   37    0    0    0
SMALL
NO_CHARGES
@<TRIPOS>ATOM
   1 C1            -0.0184     1.5028     0.0103 C.3     
   2 C2             0.0021    -0.0041     0.0020 C.ar    
   3 C3             0.0057    -0.6873    -1.1998 C.ar    
   4 C4             0.0244    -2.0684    -1.2111 C.ar    
   5 C5             0.0396    -2.7716    -0.0134 C.ar    
   6 N6             0.0590    -4.1682    -0.0220 N.pl3   
   7 S7             0.0771    -5.0048     1.4069 S.o2    
   8 O8             1.3258    -4.7204     2.0227 O.2     
   9 O9            -1.1734    -4.7552     2.0340 O.2     
  10 C10            0.0992    -6.7206     1.0065 C.ar    
  11 C11           -1.0872    -7.4154     0.8477 C.ar    
  12 C12           -1.0833    -8.7548     0.5346 C.ar    
  13 C13            0.1246    -9.4492     0.3692 C.ar    
  14 C14            1.3096    -8.7304     0.5336 C.ar    
  15 C15            1.3010    -7.3824     0.8428 C.ar    
  16 S16            2.6236    -9.8829     0.2610 S.3     
  17 C17            1.5492   -11.2552    -0.0563 C.2     
  18 O18            1.8790   -12.3961    -0.3230 O.2     
  19 N19            0.3032   -10.7849     0.0570 N.am    
  20 C20           -0.8496   -11.6660    -0.1449 C.3     
  21 C21            0.0359    -2.0831     1.1930 C.ar    
  22 C22            0.0229    -0.7011     1.1978 C.ar    
  23 Cl23           0.0189     0.1610     2.7045 Cl      
  24 H24            1.0042     1.8801     0.0026 H       
  25 H25           -0.5455     1.8639    -0.8728 H       
  26 H26           -0.5286     1.8543     0.9071 H       
  27 H27           -0.0065    -0.1404    -2.1310 H       
  28 H28            0.0269    -2.6011    -2.1506 H       
  29 H29           -2.0279    -6.8996     0.9714 H       
  30 H30           -2.0205    -9.2780     0.4152 H       
  31 H31            2.2326    -6.8496     0.9643 H       
  32 H32           -0.5014   -12.6716    -0.3807 H       
  33 H33           -1.4498   -11.6932     0.7646 H       
  34 H34           -1.4554   -11.2887    -0.9688 H       
  35 H35            0.0477    -2.6269     2.1260 H       
@<TRIPOS>BOND
   1    1    2 1
   2    1   24 1
   3    1   25 1
   4    1   26 1
   5    2   22 ar
   6    2    3 ar
   7    3    4 ar
   8    3   27 1
   9    4    5 ar
  10    4   28 1
  11    5    6 1
  12    5   21 ar
  13    6    7 1
  14    7    8 2
  15    7    9 2
  16    7   10 1
  17   10   15 ar
  18   10   11 ar
  19   11   12 ar
  20   11   29 1
  21   12   13 ar
  22   12   30 1
  23   13   19 1
  24   13   14 ar
  25   14   15 ar
  26   14   16 1
  27   15   31 1
  28   16   17 1
  29   17   18 2
  30   17   19 am
  31   19   20 1
  32   20   32 1
  33   20   33 1
  34   20   34 1
  35   21   22 ar
  36   21   35 1
  37   22   23 1
@<TRIPOS>MOLECULE
ZINC000037433298
42    44    1     0     0
SMALL
USER_CHARGES
@<TRIPOS>ATOM
1      O1     -0.7420    0.8714   -1.7886 O.co2    1 ZINC000037433298   -0.7000
2      C2     -0.9361    2.0683   -1.6610 C.2      1 ZINC000037433298    0.5000
3      O3     -0.0791    2.8649   -2.0039 O.co2    1 ZINC000037433298   -0.7000
4      C4     -2.2379    2.5634   -1.0853 C.3      1 ZINC000037433298   -0.1600
5      C5     -2.7888    1.5260   -0.1044 C.3      1 ZINC000037433298   -0.1000
6      C6     -4.1289    2.0169    0.4525 C.3      1 ZINC000037433298    0.1100
7      N7     -3.9391    3.3539    1.0316 N.am     1 ZINC000037433298   -0.6000
8      C8     -4.3143    3.6124    2.3000 C.2      1 ZINC000037433298    0.5100
9      O9     -4.8942    2.7651    2.9455 O.2      1 ZINC000037433298   -0.5400
10     C10    -4.0131    4.9543    2.9162 C.3      1 ZINC000037433298    0.1200
11     H11    -4.1637    5.7428    2.1788 H        1 ZINC000037433298    0.1000
12     C12    -2.5566    4.9831    3.4254 C.3      1 ZINC000037433298   -0.1200
13     C13    -2.6671    5.7843    4.7494 C.3      1 ZINC000037433298   -0.1300
14     C14    -4.0456    5.3183    5.2808 C.3      1 ZINC000037433298    0.1000
15     N15    -4.8888    5.1800    4.0754 N.am     1 ZINC000037433298   -0.6000
16     C16    -6.2345    5.2477    4.0462 C.2      1 ZINC000037433298    0.5600
17     O17    -6.8254    5.1197    2.9948 O.2      1 ZINC000037433298   -0.5300
18     C18    -7.0050    5.4824    5.3199 C.3      1 ZINC000037433298   -0.1900
19     C19    -7.7237    6.8244    5.4737 C.3      1 ZINC000037433298   -0.1500
20     C20    -8.5303    5.5491    5.2207 C.3      1 ZINC000037433298   -0.1500
21     C21    -3.3321    4.4035    0.2018 C.3      1 ZINC000037433298    0.1000
22     C22    -2.0010    3.8858   -0.3523 C.3      1 ZINC000037433298   -0.1100
23     H23    -2.9556    2.7183   -1.8909 H        1 ZINC000037433298    0.0600
24     H24    -2.9353    0.5779   -0.6217 H        1 ZINC000037433298    0.0800
25     H25    -2.0828    1.3888    0.7147 H        1 ZINC000037433298    0.0600
26     H26    -4.8623    2.0680   -0.3522 H        1 ZINC000037433298    0.0600
27     H27    -4.4773    1.3306    1.2243 H        1 ZINC000037433298    0.0800
28     H28    -2.1944    3.9727    3.6151 H        1 ZINC000037433298    0.0800
29     H29    -1.9100    5.4987    2.7154 H        1 ZINC000037433298    0.1000
30     H30    -1.8694    5.5102    5.4397 H        1 ZINC000037433298    0.0900
31     H31    -2.6646    6.8574    4.5581 H        1 ZINC000037433298    0.0800
32     H32    -3.9512    4.3599    5.7912 H        1 ZINC000037433298    0.0700
33     H33    -4.4661    6.0669    5.9523 H        1 ZINC000037433298    0.0800
34     H34    -6.5781    5.0340    6.2170 H        1 ZINC000037433298    0.1200
35     H35    -7.7696    7.2591    6.4722 H        1 ZINC000037433298    0.1000
36     H36    -7.6391    7.5374    4.6536 H        1 ZINC000037433298    0.1000
37     H37    -8.9765    5.4233    4.2342 H        1 ZINC000037433298    0.1100
38     H38    -9.1069    5.1450    6.0528 H        1 ZINC000037433298    0.1000
39     H39    -4.0006    4.6492   -0.6234 H        1 ZINC000037433298    0.0700
40     H40    -3.1548    5.2918    0.8080 H        1 ZINC000037433298    0.0800
41     H41    -1.3024    3.7264    0.4690 H        1 ZINC000037433298    0.0600
42     H42    -1.5867    4.6173   -1.0462 H        1 ZINC000037433298    0.0800
@<TRIPOS>BOND
1     1     2     ar
2     2     3     ar
3     2     4     1
4     4     22    1
5     4     5     1
6     4     23    1
7     5     6     1
8     5     24    1
9     5     25    1
10    6     7     1
11    6     26    1
12    6     27    1
13    7     8     am
14    7     21    1
15    8     9     2
16    8     10    1
17    10    11    1
18    10    15    1
19    10    12    1
20    12    13    1
21    12    28    1
22    12    29    1
23    13    14    1
24    13    30    1
25    13    31    1
26    14    15    1
27    14    32    1
28    14    33    1
29    15    16    am
30    16    17    2
31    16    18    1
32    18    20    1
33    18    19    1
34    18    34    1
35    19    20    1
36    19    35    1
37    19    36    1
38    20    37    1
39    20    38    1
40    21    22    1
41    21    39    1
42    21    40    1
43    22    41    1
44    22    42    1
@<TRIPOS>SUBSTRUCTURE
1   ZINC000037433298 1     RESIDUE    1   A     ZIN   1
@<TRIPOS>MOLECULE
ZINC000037435162
  44   45    0    0    0
SMALL
USER_CHARGES
NO_NAME
@<TRIPOS>ATOM
    1 C1        0.0413     1.3448    -0.7256 C.3    1 <0>      -0.1300
    2 C2        0.0022    -0.0034    -0.0033 C.3    1 <0>      -0.1100
    3 C3        0.4934     0.1741     1.4348 C.3    1 <0>      -0.1500
    4 C4       -1.4114    -0.5256     0.0095 C.2    1 <0>       0.5200
    5 O5       -2.3437     0.2462    -0.0679 O.2    1 <0>      -0.5400
    6 N6       -1.6395    -1.8504     0.1071 N.am   1 <0>      -0.6100
    7 C7       -0.5285    -2.7874     0.3226 C.3    1 <0>       0.1100
    8 C8       -0.8432    -3.6519     1.5475 C.3    1 <0>      -0.1100
    9 C9       -2.2045    -4.3244     1.3561 C.3    1 <0>      -0.1000
   10 C10      -2.5021    -5.2026     2.5441 C.2    1 <0>       0.5400
   11 O11      -1.7042    -5.2827     3.4540 O.2    1 <0>      -0.5300
   12 N12      -3.6549    -5.8989     2.5955 N.am   1 <0>      -0.5900
   13 C13      -4.7054    -5.8990     1.5612 C.3    1 <0>       0.1000
   14 C14      -5.4544    -7.2408     1.7569 C.3    1 <0>      -0.1300
   15 C15      -5.4409    -7.3827     3.3019 C.3    1 <0>      -0.1100
   16 C16      -4.0702    -6.7891     3.6894 C.3    1 <0>       0.0600
   17 H17      -3.3425    -7.5902     3.8186 H      1 <0>       0.0700
   18 C18      -4.1961    -6.0003     4.9673 C.2    1 <0>       0.5000
   19 O19      -4.3670    -6.5792     6.0267 O.co2  1 <0>      -0.7000
   20 O20      -4.1269    -4.7834     4.9419 O.co2  1 <0>      -0.6800
   21 C21      -3.2908    -3.2539     1.2286 C.3    1 <0>      -0.1300
   22 C22      -3.0046    -2.3843     0.0062 C.3    1 <0>       0.1100
   23 H23       1.0637     1.7225    -0.7349 H      1 <0>       0.0600
   24 H24      -0.3087     1.2184    -1.7502 H      1 <0>       0.0600
   25 H25      -0.6034     2.0540    -0.2064 H      1 <0>       0.0700
   26 H26       0.6468    -0.7126    -0.5226 H      1 <0>       0.0900
   27 H27      -0.0954     0.9481     1.9269 H      1 <0>       0.0600
   28 H28       0.3822    -0.7659     1.9753 H      1 <0>       0.0600
   29 H29       1.5435     0.4664     1.4266 H      1 <0>       0.0700
   30 H30      -0.4126    -3.4244    -0.5543 H      1 <0>       0.0700
   31 H31       0.3917    -2.2295     0.4957 H      1 <0>       0.0900
   32 H32      -0.0733    -4.4150     1.6616 H      1 <0>       0.0800
   33 H33      -0.8693    -3.0247     2.4385 H      1 <0>       0.0800
   34 H34      -2.1855    -4.9318     0.4513 H      1 <0>       0.0900
   35 H35      -5.3849    -5.0600     1.7106 H      1 <0>       0.0700
   36 H36      -4.2595    -5.8549     0.5676 H      1 <0>       0.0700
   37 H37      -6.4749    -7.1773     1.3793 H      1 <0>       0.0800
   38 H38      -4.9151    -8.0618     1.2844 H      1 <0>       0.0700
   39 H39      -6.2535    -6.8100     3.7488 H      1 <0>       0.0700
   40 H40      -5.5008    -8.4312     3.5934 H      1 <0>       0.0700
   41 H41      -4.2629    -3.7338     1.1158 H      1 <0>       0.0900
   42 H42      -3.2938    -2.6304     2.1226 H      1 <0>       0.0800
   43 H43      -3.7183    -1.5614    -0.0320 H      1 <0>       0.0900
   44 H44      -3.0891    -2.9864    -0.8985 H      1 <0>       0.0700
@<TRIPOS>BOND
   1    1    2 1
   2    1   23 1
   3    1   24 1
   4    1   25 1
   5    2    3 1
   6    2    4 1
   7    2   26 1
   8    3   27 1
   9    3   28 1
  10    3   29 1
  11    4    5 2
  12    4    6 am
  13    6   22 1
  14    6    7 1
  15    7    8 1
  16    7   30 1
  17    7   31 1
  18    8    9 1
  19    8   32 1
  20    8   33 1
  21    9   10 1
  22    9   21 1
  23    9   34 1
  24   10   11 2
  25   10   12 am
  26   12   16 1
  27   12   13 1
  28   13   14 1
  29   13   35 1
  30   13   36 1
  31   14   15 1
  32   14   37 1
  33   14   38 1
  34   15   16 1
  35   15   39 1
  36   15   40 1
  37   16   17 1
  38   16   18 1
  39   18   19 ar
  40   18   20 ar
  41   21   22 1
  42   21   41 1
  43   21   42 1
  44   22   43 1
  45   22   44 1
@<TRIPOS>MOLECULE
ZINC000037750837
  30   31    0    0    0
SMALL
USER_CHARGES
NO_NAME
@<TRIPOS>ATOM
    1 C1       -0.0225     1.8097     0.0120 C.3    1 <0>      -0.6500
    2 S2        0.0021    -0.0041     0.0020 S.o2   1 <0>       2.4300
    3 O3        0.8010    -0.4520     1.0884 O.2    1 <0>      -0.9300
    4 O4       -1.3336    -0.4743    -0.1172 O.2    1 <0>      -0.9300
    5 C5        0.8798    -0.3584    -1.5454 C.3    1 <0>      -0.6500
    6 C6        0.9992    -1.8727    -1.7288 C.3    1 <0>       0.1300
    7 N7        1.7081    -2.1589    -2.9786 N.pl3  1 <0>      -0.6700
    8 C8        1.9360    -3.4636    -3.3581 C.2    1 <0>       0.5100
    9 N9        1.5233    -4.4434    -2.6202 N.am   1 <0>      -0.8900
   10 S10       1.9834    -5.8459    -3.4060 S.o2   1 <0>       2.5900
   11 O11       2.9829    -6.4734    -2.6146 O.2    1 <0>      -0.9400
   12 O12       0.8014    -6.4921    -3.8584 O.2    1 <0>      -0.9400
   13 C13       2.7843    -5.1417    -4.8203 C.ar   1 <0>      -0.6200
   14 C14       3.4154    -5.6490    -5.9191 C.ar   1 <0>       0.0100
   15 C15       3.9480    -4.7845    -6.8652 C.ar   1 <0>      -0.0900
   16 C16       3.8320    -3.4184    -6.6820 C.ar   1 <0>      -0.0900
   17 C17       3.1962    -2.9039    -5.5741 C.ar   1 <0>      -0.0500
   18 C18       2.6467    -3.7629    -4.6107 C.ar   1 <0>      -0.1200
   19 H19       1.0001     2.1870     0.0043 H      1 <0>       0.1300
   20 H20      -0.5497     2.1708    -0.8711 H      1 <0>       0.1300
   21 H21      -0.5327     2.1613     0.9088 H      1 <0>       0.1300
   22 H22       0.3261     0.0664    -2.3827 H      1 <0>       0.1400
   23 H23       1.8759     0.0826    -1.5074 H      1 <0>       0.1400
   24 H24       1.5529    -2.2975    -0.8916 H      1 <0>       0.1000
   25 H25       0.0031    -2.3137    -1.7669 H      1 <0>       0.1000
   26 H26       2.0169    -1.4298    -3.5389 H      1 <0>       0.4200
   27 H27       3.5002    -6.7176    -6.0513 H      1 <0>       0.1500
   28 H28       4.4496    -5.1756    -7.7380 H      1 <0>       0.1500
   29 H29       4.2464    -2.7456    -7.4182 H      1 <0>       0.1500
   30 H30       3.1164    -1.8342    -5.4485 H      1 <0>       0.1400
@<TRIPOS>BOND
   1    1    2 1
   2    1   19 1
   3    1   20 1
   4    1   21 1
   5    2    3 2
   6    2    4 2
   7    2    5 1
   8    5    6 1
   9    5   22 1
  10    5   23 1
  11    6    7 1
  12    6   24 1
  13    6   25 1
  14    7    8 1
  15    7   26 1
  16    8   18 1
  17    8    9 2
  18    9   10 am
  19   10   11 2
  20   10   12 2
  21   10   13 1
  22   13   18 ar
  23   13   14 ar
  24   14   15 ar
  25   14   27 1
  26   15   16 ar
  27   15   28 1
  28   16   17 ar
  29   16   29 1
  30   17   18 ar
  31   17   30 1
@<TRIPOS>MOLECULE
ZINC000037835981
  33   34    0    0    0
SMALL
USER_CHARGES
NO_NAME
@<TRIPOS>ATOM
    1 C1       -2.7940    -0.6943    -1.2031 C.1    1 <0>      -0.2000
    2 C2       -2.4566     0.4193    -1.0468 C.1    1 <0>      -0.1900
    3 C3       -2.0336     1.8156    -0.8509 C.3    1 <0>       0.2100
    4 N4       -0.7808     1.8444    -0.0920 N.am   1 <0>      -0.5900
    5 C5        0.4005     1.8143    -0.7402 C.2    1 <0>       0.5800
    6 O6        1.4376     1.8382    -0.1120 O.2    1 <0>      -0.5200
    7 C7        0.4326     1.7510    -2.2455 C.3    1 <0>      -0.1800
    8 H8       -0.0567     0.8844    -2.6902 H      1 <0>       0.1100
    9 C9        1.6759     2.2986    -2.9492 C.3    1 <0>      -0.1300
   10 C10       0.3576     3.0742    -3.0100 C.3    1 <0>      -0.1900
   11 H11      -0.1808     3.0782    -3.9577 H      1 <0>       0.1000
   12 C12       0.2579     4.3414    -2.2005 C.2    1 <0>       0.5100
   13 O13      -0.5157     5.2212    -2.5382 O.co2  1 <0>      -0.6900
   14 O14       0.9507     4.4869    -1.2079 O.co2  1 <0>      -0.6700
   15 C15      -0.8121     1.9059     1.3713 C.3    1 <0>       0.1500
   16 H16       0.2038     1.9075     1.7664 H      1 <0>       0.1300
   17 C17      -1.5939     0.7054     1.9327 C.3    1 <0>      -0.1300
   18 C18      -1.9033     0.9686     3.4199 C.3    1 <0>      -0.5900
   19 S19      -1.9789     2.7896     3.5754 S.o2   1 <0>       2.3900
   20 O20      -3.3179     3.1843     3.8409 O.2    1 <0>      -0.9400
   21 O21      -0.9287     3.2338     4.4233 O.2    1 <0>      -0.9300
   22 C22      -1.5634     3.1811     1.8333 C.3    1 <0>      -0.6000
   23 H23      -3.0957    -1.6902    -1.3428 H      1 <0>       0.2200
   24 H24      -1.8818     2.2887    -1.8210 H      1 <0>       0.1200
   25 H25      -2.8044     2.3548    -0.3003 H      1 <0>       0.1000
   26 H26       2.4706     2.7047    -2.3234 H      1 <0>       0.1100
   27 H27       2.0043     1.7926    -3.8571 H      1 <0>       0.0900
   28 H28      -2.5258     0.5843     1.3804 H      1 <0>       0.0900
   29 H29      -0.9938    -0.1996     1.8378 H      1 <0>       0.0900
   30 H30      -2.8614     0.5254     3.6913 H      1 <0>       0.1400
   31 H31      -1.1083     0.5677     4.0486 H      1 <0>       0.1400
   32 H32      -0.9147     4.0553     1.7773 H      1 <0>       0.1500
   33 H33      -2.4681     3.3310     1.2441 H      1 <0>       0.1400
@<TRIPOS>BOND
   1    1    2 3
   2    1   23 1
   3    2    3 1
   4    3    4 1
   5    3   24 1
   6    3   25 1
   7    4    5 am
   8    4   15 1
   9    5    6 2
  10    5    7 1
  11    7    8 1
  12    7   10 1
  13    7    9 1
  14    9   10 1
  15    9   26 1
  16    9   27 1
  17   10   11 1
  18   10   12 1
  19   12   13 ar
  20   12   14 ar
  21   15   16 1
  22   15   22 1
  23   15   17 1
  24   17   18 1
  25   17   28 1
  26   17   29 1
  27   18   19 1
  28   18   30 1
  29   18   31 1
  30   19   20 2
  31   19   21 2
  32   19   22 1
  33   22   32 1
  34   22   33 1
@<TRIPOS>MOLECULE
ZINC000038016443
30    31    1     0     0
SMALL
USER_CHARGES
@<TRIPOS>ATOM
1      C1     -0.2827   -2.3480    2.9478 C.3      1 ZINC000038016443   -0.1600
2      C2     -0.0225   -0.9137    2.4831 C.3      1 ZINC000038016443    0.1200
3      N3      0.6070   -0.9355    1.1604 N.am     1 ZINC000038016443   -0.5700
4      C4     -0.2222   -1.0247   -0.0441 C.3      1 ZINC000038016443    0.0300
5      C5     -0.7275    0.3474   -0.4088 C.2      1 ZINC000038016443    0.4800
6      O6     -0.4232    1.3106    0.2740 O.co2    1 ZINC000038016443   -0.6800
7      O7     -1.4406    0.4944   -1.3868 O.co2    1 ZINC000038016443   -0.6900
8      C8      1.9489   -0.8735    1.0516 C.2      1 ZINC000038016443    0.5700
9      O9      2.6406   -0.8765    2.0515 O.2      1 ZINC000038016443   -0.5500
10     C10     2.5788   -0.8019   -0.2814 C.ar     1 ZINC000038016443   -0.1000
11     C11     2.1133    0.1143   -1.2273 C.ar     1 ZINC000038016443   -0.0600
12     C12     2.7034    0.1799   -2.4720 C.ar     1 ZINC000038016443   -0.0200
13     Cl13    2.1230    1.3195   -3.6459 Cl       1 ZINC000038016443   -0.0400
14     C14     3.7612   -0.6628   -2.7890 C.ar     1 ZINC000038016443    0.0500
15     O15     4.5004   -0.7920   -3.9278 O.3      1 ZINC000038016443   -0.3000
16     C16     5.6875   -1.5070   -3.5378 C.3      1 ZINC000038016443    0.2100
17     O17     5.2633   -2.2813   -2.4005 O.3      1 ZINC000038016443   -0.3000
18     C18     4.2304   -1.5799   -1.8477 C.ar     1 ZINC000038016443    0.0300
19     C19     3.6461   -1.6465   -0.5980 C.ar     1 ZINC000038016443   -0.0500
20     H20     0.6621   -2.8887    3.0039 H        1 ZINC000038016443    0.0500
21     H21    -0.7510   -2.3317    3.9319 H        1 ZINC000038016443    0.0600
22     H22    -0.9444   -2.8453    2.2386 H        1 ZINC000038016443    0.0500
23     H23    -0.9673   -0.3729    2.4270 H        1 ZINC000038016443    0.0800
24     H24     0.6392   -0.4163    3.1922 H        1 ZINC000038016443    0.0800
25     H25     0.3726   -1.4232   -0.8660 H        1 ZINC000038016443    0.0800
26     H26    -1.0685   -1.6850    0.1455 H        1 ZINC000038016443    0.0800
27     H27     1.2910    0.7709   -0.9841 H        1 ZINC000038016443    0.1800
28     H28     6.0224   -2.1612   -4.3429 H        1 ZINC000038016443    0.1300
29     H29     6.4776   -0.8116   -3.2544 H        1 ZINC000038016443    0.0900
30     H30     4.0120   -2.3525    0.1328 H        1 ZINC000038016443    0.1500
@<TRIPOS>BOND
1     1     2     1
2     1     20    1
3     1     21    1
4     1     22    1
5     2     3     1
6     2     23    1
7     2     24    1
8     3     4     1
9     3     8     am
10    4     5     1
11    4     25    1
12    4     26    1
13    5     6     ar
14    5     7     ar
15    8     9     2
16    8     10    1
17    10    19    ar
18    10    11    ar
19    11    12    ar
20    11    27    1
21    12    13    1
22    12    14    ar
23    14    18    ar
24    14    15    1
25    15    16    1
26    16    17    1
27    16    28    1
28    16    29    1
29    17    18    1
30    18    19    ar
31    19    30    1
@<TRIPOS>SUBSTRUCTURE
1   ZINC000038016443 1     RESIDUE    1   A     ZIN   1
@<TRIPOS>MOLECULE
ZINC000040604419
  40   41    0    0    0
SMALL
USER_CHARGES
NO_NAME
@<TRIPOS>ATOM
    1 C1        0.0541     1.4654     0.1113 C.3    1 <0>      -0.1500
    2 C2       -0.0461    -0.0560    -0.0153 C.3    1 <0>      -0.1300
    3 C3        0.6107    -0.5033    -1.3228 C.3    1 <0>       0.1600
    4 H4        1.6254    -0.1094    -1.3814 H      1 <0>       0.0700
    5 C5        0.6411    -2.0446    -1.3944 C.3    1 <0>      -0.1300
    6 C6        0.3419    -2.3289    -2.8901 C.3    1 <0>      -0.1300
    7 C7       -0.6607    -1.1971    -3.2273 C.3    1 <0>       0.1000
    8 N8       -0.1781    -0.0253    -2.4677 N.am   1 <0>      -0.6400
    9 C9       -0.4239     1.2642    -2.7729 C.2    1 <0>       0.7400
   10 O10       0.1196     2.1519    -2.1446 O.2    1 <0>      -0.5500
   11 N11      -1.2721     1.5697    -3.7748 N.am   1 <0>      -0.6000
   12 C12      -1.9478     0.5988    -4.6547 C.3    1 <0>       0.0700
   13 C13      -3.2099     1.3377    -5.1652 C.3    1 <0>       0.0700
   14 H14      -3.5442     0.9274    -6.1181 H      1 <0>       0.0800
   15 O15      -4.2581     1.2915    -4.1949 O.3    1 <0>      -0.3700
   16 C16      -5.1418     0.1788    -4.3465 C.3    1 <0>       0.0300
   17 C17      -2.6753     2.7838    -5.3392 C.3    1 <0>      -0.1000
   18 C18      -1.6818     2.9261    -4.1670 C.3    1 <0>       0.0900
   19 H19      -2.1658     3.4291    -3.3298 H      1 <0>       0.0700
   20 C20      -0.4758     3.7137    -4.6101 C.2    1 <0>       0.5000
   21 O21      -0.5721     4.9114    -4.8167 O.co2  1 <0>      -0.7000
   22 O22       0.5962     3.1532    -4.7619 O.co2  1 <0>      -0.6800
   23 H23       1.0630     1.7860    -0.1482 H      1 <0>       0.0600
   24 H24      -0.6612     1.9341    -0.5646 H      1 <0>       0.0900
   25 H25      -0.1683     1.7601     1.1369 H      1 <0>       0.0300
   26 H26       0.4636    -0.5250     0.8263 H      1 <0>       0.0600
   27 H27      -1.0950    -0.3523    -0.0157 H      1 <0>       0.0600
   28 H28       1.6251    -2.4241    -1.1191 H      1 <0>       0.0800
   29 H29      -0.1317    -2.4755    -0.7579 H      1 <0>       0.0700
   30 H30       1.2460    -2.2423    -3.4928 H      1 <0>       0.0800
   31 H31      -0.1181    -3.3089    -3.0171 H      1 <0>       0.0800
   32 H32      -0.6485    -0.9856    -4.2965 H      1 <0>       0.0800
   33 H33      -1.6652    -1.4718    -2.9055 H      1 <0>       0.0600
   34 H34      -1.3014     0.3302    -5.4902 H      1 <0>       0.0700
   35 H35      -2.2306    -0.2907    -4.0916 H      1 <0>       0.0800
   36 H36      -5.6138     0.2208    -5.3281 H      1 <0>       0.0400
   37 H37      -4.5770    -0.7489    -4.2542 H      1 <0>       0.0400
   38 H38      -5.9086     0.2159    -3.5727 H      1 <0>       0.0800
   39 H39      -2.1661     2.8941    -6.2966 H      1 <0>       0.0900
   40 H40      -3.4846     3.5080    -5.2458 H      1 <0>       0.0900
@<TRIPOS>BOND
   1    1    2 1
   2    1   23 1
   3    1   24 1
   4    1   25 1
   5    2    3 1
   6    2   26 1
   7    2   27 1
   8    3    4 1
   9    3    8 1
  10    3    5 1
  11    5    6 1
  12    5   28 1
  13    5   29 1
  14    6    7 1
  15    6   30 1
  16    6   31 1
  17    7    8 1
  18    7   32 1
  19    7   33 1
  20    8    9 am
  21    9   10 2
  22    9   11 am
  23   11   18 1
  24   11   12 1
  25   12   13 1
  26   12   34 1
  27   12   35 1
  28   13   14 1
  29   13   15 1
  30   13   17 1
  31   15   16 1
  32   16   36 1
  33   16   37 1
  34   16   38 1
  35   17   18 1
  36   17   39 1
  37   17   40 1
  38   18   19 1
  39   18   20 1
  40   20   21 ar
  41   20   22 ar
@<TRIPOS>MOLECULE
ZINC000043428784
  41   43    0    0    0
SMALL
USER_CHARGES
NO_NAME
@<TRIPOS>ATOM
    1 O1        2.7995     4.4464     3.8096 O.co2  1 <0>      -0.6800
    2 C2        1.9932     3.9579     3.0365 C.2    1 <0>       0.4900
    3 O3        2.2869     3.8094     1.8625 O.co2  1 <0>      -0.6600
    4 C4        0.6356     3.5321     3.5332 C.3    1 <0>       0.0400
    5 H5        0.1977     4.3246     4.1400 H      1 <0>       0.0700
    6 C6        0.7638     2.2412     4.3691 C.3    1 <0>      -0.1100
    7 C7       -0.5007     1.4383     3.9647 C.3    1 <0>      -0.1300
    8 C8       -0.6403     1.8111     2.4676 C.3    1 <0>       0.1300
    9 N9       -0.2426     3.2321     2.3929 N.am   1 <0>      -0.6100
   10 C10      -0.6209     4.1045     1.4378 C.2    1 <0>       0.7500
   11 O11      -1.2099     3.7077     0.4508 O.2    1 <0>      -0.6100
   12 N12      -0.3465     5.4167     1.5766 N.am   1 <0>      -0.6200
   13 C13      -0.8970     6.4133     0.6441 C.3    1 <0>       0.1000
   14 C14      -1.5597     7.5307     1.4569 C.3    1 <0>       0.0500
   15 O15      -0.6392     8.0140     2.4394 O.3    1 <0>      -0.3700
   16 C16      -0.2355     7.0283     3.3893 C.3    1 <0>       0.0900
   17 H17      -1.1222     6.6121     3.8675 H      1 <0>       0.0400
   18 C18       0.6585     7.6509     4.4568 C.3    1 <0>      -0.1000
   19 C19       1.9368     8.1930     3.8148 C.3    1 <0>      -0.1100
   20 C20       2.6808     7.0445     3.1289 C.3    1 <0>      -0.1300
   21 C21       1.7898     6.4440     2.0411 C.3    1 <0>      -0.1300
   22 C22       0.5116     5.9058     2.6725 C.3    1 <0>       0.0500
   23 H23       0.7459     5.0948     3.3620 H      1 <0>       0.1800
   24 H24       1.6689     1.6962     4.1006 H      1 <0>       0.0700
   25 H25       0.7515     2.4690     5.4349 H      1 <0>       0.0800
   26 H26      -0.3393     0.3673     4.0871 H      1 <0>       0.0800
   27 H27      -1.3710     1.7680     4.5322 H      1 <0>       0.0700
   28 H28       0.0248     1.1973     1.8602 H      1 <0>       0.0600
   29 H29      -1.6733     1.6901     2.1412 H      1 <0>       0.0700
   30 H30      -0.0931     6.8298     0.0373 H      1 <0>       0.0700
   31 H31      -1.6382     5.9408    -0.0005 H      1 <0>       0.0900
   32 H32      -1.8421     8.3461     0.7910 H      1 <0>       0.1000
   33 H33      -2.4491     7.1413     1.9525 H      1 <0>       0.0500
   34 H34       0.1249     8.4663     4.9453 H      1 <0>       0.0600
   35 H35       0.9180     6.8948     5.1977 H      1 <0>       0.0800
   36 H36       1.6798     8.9528     3.0767 H      1 <0>       0.0600
   37 H37       2.5729     8.6313     4.5837 H      1 <0>       0.0500
   38 H38       3.5990     7.4228     2.6795 H      1 <0>       0.0400
   39 H39       2.9240     6.2778     3.8644 H      1 <0>       0.1200
   40 H40       1.5392     7.2143     1.3118 H      1 <0>       0.0400
   41 H41       2.3224     5.6340     1.5427 H      1 <0>       0.1100
@<TRIPOS>BOND
   1    1    2 ar
   2    2    3 ar
   3    2    4 1
   4    4    5 1
   5    4    9 1
   6    4    6 1
   7    6    7 1
   8    6   24 1
   9    6   25 1
  10    7    8 1
  11    7   26 1
  12    7   27 1
  13    8    9 1
  14    8   28 1
  15    8   29 1
  16    9   10 am
  17   10   11 2
  18   10   12 am
  19   12   22 1
  20   12   13 1
  21   13   14 1
  22   13   30 1
  23   13   31 1
  24   14   15 1
  25   14   32 1
  26   14   33 1
  27   15   16 1
  28   16   17 1
  29   16   22 1
  30   16   18 1
  31   18   19 1
  32   18   34 1
  33   18   35 1
  34   19   20 1
  35   19   36 1
  36   19   37 1
  37   20   21 1
  38   20   38 1
  39   20   39 1
  40   21   22 1
  41   21   40 1
  42   21   41 1
  43   22   23 1
@<TRIPOS>MOLECULE
ZINC000049513911
36    37    1     0     0
SMALL
USER_CHARGES
@<TRIPOS>ATOM
1      O1      0.0021   -0.0041    0.0020 O.2      1 ZINC000049513911   -0.6100
2      C2     -0.0144    1.2086    0.0087 C.2      1 ZINC000049513911    0.5400
3      N3      1.1435    1.8983    0.0013 N.pl3    1 ZINC000049513911   -1.1300
4      S4      2.5887    1.0899   -0.0168 S.o2     1 ZINC000049513911    2.5700
5      O5      2.6109    0.3840    1.2163 O.2      1 ZINC000049513911   -1.0100
6      O6      2.5872    0.3973   -1.2576 O.2      1 ZINC000049513911   -1.0200
7      C7      3.8413    2.4020   -0.0217 C.3      1 ZINC000049513911   -0.5600
8      C8      3.6837    3.2622    1.2337 C.3      1 ZINC000049513911   -0.0900
9      C9      4.7402    4.3689    1.2296 C.3      1 ZINC000049513911   -0.1100
10     C10     6.1356    3.7418    1.2129 C.3      1 ZINC000049513911   -0.1200
11     C11     6.2932    2.8816   -0.0426 C.3      1 ZINC000049513911   -0.1100
12     C12     5.2367    1.7749   -0.0384 C.3      1 ZINC000049513911   -0.1100
13     C13    -1.3296    1.9443    0.0189 C.3      1 ZINC000049513911    0.0700
14     H14    -1.3558    2.6318    0.8643 H        1 ZINC000049513911    0.0800
15     C15    -1.4861    2.7310   -1.2856 C.3      1 ZINC000049513911    0.0500
16     O16    -2.7826    3.3354   -1.3166 O.3      1 ZINC000049513911   -0.3900
17     C17    -3.8554    2.3955   -1.2037 C.3      1 ZINC000049513911    0.0200
18     C18    -3.6988    1.6088    0.1009 C.3      1 ZINC000049513911    0.0200
19     O19    -2.4023    1.0045    0.1334 O.3      1 ZINC000049513911   -0.3600
20     H20     3.7120    3.0244   -0.9072 H        1 ZINC000049513911    0.1200
21     H21     2.6895    3.7090    1.2456 H        1 ZINC000049513911    0.0900
22     H22     3.8129    2.6399    2.1192 H        1 ZINC000049513911    0.0700
23     H23     4.6109    4.9913    0.3441 H        1 ZINC000049513911    0.0600
24     H24     4.6279    4.9817    2.1240 H        1 ZINC000049513911    0.0600
25     H25     6.8883    4.5302    1.2099 H        1 ZINC000049513911    0.0600
26     H26     6.2649    3.1194    2.0983 H        1 ZINC000049513911    0.0600
27     H27     6.1640    3.5040   -0.9280 H        1 ZINC000049513911    0.0600
28     H28     7.2874    2.4348   -0.0545 H        1 ZINC000049513911    0.0600
29     H29     5.3660    1.1525    0.8470 H        1 ZINC000049513911    0.0700
30     H30     5.3490    1.1621   -0.9328 H        1 ZINC000049513911    0.0700
31     H31    -0.7215    3.5061   -1.3376 H        1 ZINC000049513911    0.1200
32     H32    -1.3790    2.0549   -2.1339 H        1 ZINC000049513911    0.0600
33     H33    -4.8066    2.9276   -1.1963 H        1 ZINC000049513911    0.1000
34     H34    -3.8279    1.7081   -2.0491 H        1 ZINC000049513911    0.0600
35     H35    -3.8059    2.2849    0.9491 H        1 ZINC000049513911    0.0600
36     H36    -4.4634    0.8336    0.1528 H        1 ZINC000049513911    0.1000
@<TRIPOS>BOND
1     1     2     2
2     2     3     1
3     2     13    1
4     3     4     1
5     4     5     2
6     4     6     2
7     4     7     1
8     7     12    1
9     7     8     1
10    7     20    1
11    8     9     1
12    8     21    1
13    8     22    1
14    9     10    1
15    9     23    1
16    9     24    1
17    10    11    1
18    10    25    1
19    10    26    1
20    11    12    1
21    11    27    1
22    11    28    1
23    12    29    1
24    12    30    1
25    13    14    1
26    13    19    1
27    13    15    1
28    15    16    1
29    15    31    1
30    15    32    1
31    16    17    1
32    17    18    1
33    17    33    1
34    17    34    1
35    18    19    1
36    18    35    1
37    18    36    1
@<TRIPOS>SUBSTRUCTURE
1   ZINC000049513911 1     RESIDUE    1   A     ZIN   1
@<TRIPOS>MOLECULE
ZINC000050291193
34    35    1     0     0
SMALL
USER_CHARGES
@<TRIPOS>ATOM
1      C1     -0.2248    1.7463    0.2183 C.3      1 ZINC000050291193    0.0600
2      N2     -0.0686    0.3035    0.0179 N.am     1 ZINC000050291193   -0.6100
3      C3      0.1573   -0.5030    1.0738 C.2      1 ZINC000050291193    0.5700
4      O4      0.3853   -1.6813    0.8991 O.2      1 ZINC000050291193   -0.5500
5      C5      0.1266    0.0594    2.4716 C.3      1 ZINC000050291193   -0.1800
6      C6     -1.2481    0.5140    2.8894 C.2      1 ZINC000050291193    0.5200
7      O7     -2.1936   -0.2517    2.8106 O.co2    1 ZINC000050291193   -0.6800
8      O8     -1.4148    1.6476    3.3063 O.co2    1 ZINC000050291193   -0.6800
9      C9      0.8241   -0.8343    3.5107 C.3      1 ZINC000050291193   -0.1000
10     C10     2.1198   -0.0763    3.1769 C.3      1 ZINC000050291193   -0.1500
11     C11     1.2276    1.0983    2.7420 C.3      1 ZINC000050291193   -0.1100
12     C12    -0.1580   -0.2627   -1.3303 C.3      1 ZINC000050291193    0.1500
13     H13    -0.0301   -1.3441   -1.2828 H        1 ZINC000050291193    0.1200
14     C14    -1.5306    0.0697   -1.9411 C.3      1 ZINC000050291193   -0.1400
15     C15    -1.4343   -0.2582   -3.4535 C.3      1 ZINC000050291193   -0.5800
16     S16     0.2153    0.4036   -3.9008 S.o2     1 ZINC000050291193    2.3900
17     O17     0.8867   -0.5299   -4.7356 O.2      1 ZINC000050291193   -0.9400
18     O18     0.0834    1.7565   -4.3150 O.2      1 ZINC000050291193   -0.9400
19     C19     0.9390    0.3501   -2.2236 C.3      1 ZINC000050291193   -0.6100
20     H20     0.7573    2.2186    0.2395 H        1 ZINC000050291193    0.0600
21     H21    -0.8119    2.1652   -0.5990 H        1 ZINC000050291193    0.0700
22     H22    -0.7361    1.9285    1.1635 H        1 ZINC000050291193    0.1100
23     H23     0.4743   -0.6732    4.5304 H        1 ZINC000050291193    0.0800
24     H24     0.8508   -1.8880    3.2327 H        1 ZINC000050291193    0.0700
25     H25     2.7349    0.1425    4.0498 H        1 ZINC000050291193    0.0600
26     H26     2.6870   -0.5201    2.3587 H        1 ZINC000050291193    0.0700
27     H27     1.5800    1.6049    1.8435 H        1 ZINC000050291193    0.0600
28     H28     0.9881    1.7878    3.5515 H        1 ZINC000050291193    0.1000
29     H29    -2.3042   -0.5408   -1.4753 H        1 ZINC000050291193    0.1100
30     H30    -1.7549    1.1273   -1.8020 H        1 ZINC000050291193    0.0900
31     H31    -1.4773   -1.3346   -3.6195 H        1 ZINC000050291193    0.1400
32     H32    -2.2200    0.2520   -4.0107 H        1 ZINC000050291193    0.1400
33     H33     1.1860    1.3566   -1.8856 H        1 ZINC000050291193    0.1400
34     H34     1.8272   -0.2816   -2.2145 H        1 ZINC000050291193    0.1400
@<TRIPOS>BOND
1     1     2     1
2     1     20    1
3     1     21    1
4     1     22    1
5     2     3     am
6     2     12    1
7     3     4     2
8     3     5     1
9     5     11    1
10    5     6     1
11    5     9     1
12    6     7     ar
13    6     8     ar
14    9     10    1
15    9     23    1
16    9     24    1
17    10    11    1
18    10    25    1
19    10    26    1
20    11    27    1
21    11    28    1
22    12    13    1
23    12    19    1
24    12    14    1
25    14    15    1
26    14    29    1
27    14    30    1
28    15    16    1
29    15    31    1
30    15    32    1
31    16    17    2
32    16    18    2
33    16    19    1
34    19    33    1
35    19    34    1
@<TRIPOS>SUBSTRUCTURE
1   ZINC000050291193 1     RESIDUE    1   A     ZIN   1
@<TRIPOS>MOLECULE
ZINC000054051653
  43   43    0    0    0
SMALL
USER_CHARGES
NO_NAME
@<TRIPOS>ATOM
    1 C1       -0.2317     2.3745     0.9086 C.3    1 <0>      -0.1300
    2 C2        1.1987     1.8316     0.9214 C.3    1 <0>      -0.1200
    3 C3        1.4470     1.0795     2.2305 C.3    1 <0>      -0.1400
    4 C4        1.3899     0.8924    -0.2415 C.2    1 <0>       0.5200
    5 O5        0.4373     0.3067    -0.7110 O.2    1 <0>      -0.5500
    6 N6        2.6196     0.7033    -0.7598 N.am   1 <0>      -0.6100
    7 C7        3.7988     1.3148    -0.1319 C.3    1 <0>       0.1000
    8 C8        4.8338     0.2197     0.1445 C.3    1 <0>      -0.1100
    9 C9        5.1326    -0.5336    -1.1537 C.3    1 <0>      -0.1100
   10 C10       6.1758    -1.5894    -0.8928 C.2    1 <0>       0.5200
   11 O11       6.4746    -1.8781     0.2466 O.2    1 <0>      -0.5600
   12 N12       6.7765    -2.2129    -1.9257 N.am   1 <0>      -0.5700
   13 C13       7.7404    -3.2868    -1.6726 C.3    1 <0>       0.0900
   14 C14       6.4657    -1.8169    -3.3015 C.3    1 <0>       0.0500
   15 H15       5.6525    -1.0910    -3.2956 H      1 <0>       0.0900
   16 C16       6.0435    -3.0492    -4.1040 C.3    1 <0>      -0.1400
   17 C17       7.6859    -1.1991    -3.9343 C.2    1 <0>       0.4900
   18 O18       8.7640    -1.2620    -3.3684 O.co2  1 <0>      -0.6800
   19 O19       7.5950    -0.6366    -5.0121 O.co2  1 <0>      -0.6900
   20 C20       3.8525    -1.1972    -1.6666 C.3    1 <0>      -0.1300
   21 C21       2.8071    -0.1232    -1.9600 C.3    1 <0>       0.1100
   22 H22      -0.3824     2.9802     0.0151 H      1 <0>       0.0600
   23 H23      -0.9360     1.5427     0.9068 H      1 <0>       0.0700
   24 H24      -0.3956     2.9874     1.7950 H      1 <0>       0.0600
   25 H25       1.9025     2.6598     0.8391 H      1 <0>       0.0900
   26 H26       0.7432     0.2513     2.3129 H      1 <0>       0.0600
   27 H27       2.4660     0.6927     2.2397 H      1 <0>       0.0600
   28 H28       1.3087     1.7588     3.0717 H      1 <0>       0.0700
   29 H29       4.2254     2.0597    -0.8036 H      1 <0>       0.0700
   30 H30       3.5090     1.7887     0.8059 H      1 <0>       0.0900
   31 H31       5.7508     0.6727     0.5216 H      1 <0>       0.0800
   32 H32       4.4392    -0.4752     0.8857 H      1 <0>       0.0800
   33 H33       5.5037     0.1663    -1.9025 H      1 <0>       0.1000
   34 H34       7.2264    -4.2478    -1.6898 H      1 <0>       0.0400
   35 H35       8.5106    -3.2729    -2.4438 H      1 <0>       0.0900
   36 H36       8.2013    -3.1386    -0.6961 H      1 <0>       0.0700
   37 H37       5.1609    -3.4960    -3.6463 H      1 <0>       0.0500
   38 H38       5.8122    -2.7545    -5.1276 H      1 <0>       0.0700
   39 H39       6.8566    -3.7751    -4.1098 H      1 <0>       0.0500
   40 H40       4.0710    -1.7529    -2.5786 H      1 <0>       0.0900
   41 H41       3.4671    -1.8788    -0.9083 H      1 <0>       0.0700
   42 H42       1.8631    -0.5964    -2.2305 H      1 <0>       0.1000
   43 H43       3.1507     0.5068    -2.7804 H      1 <0>       0.0700
@<TRIPOS>BOND
   1    1    2 1
   2    1   22 1
   3    1   23 1
   4    1   24 1
   5    2    3 1
   6    2    4 1
   7    2   25 1
   8    3   26 1
   9    3   27 1
  10    3   28 1
  11    4    5 2
  12    4    6 am
  13    6   21 1
  14    6    7 1
  15    7    8 1
  16    7   29 1
  17    7   30 1
  18    8    9 1
  19    8   31 1
  20    8   32 1
  21    9   10 1
  22    9   20 1
  23    9   33 1
  24   10   11 2
  25   10   12 am
  26   12   13 1
  27   12   14 1
  28   13   34 1
  29   13   35 1
  30   13   36 1
  31   14   15 1
  32   14   16 1
  33   14   17 1
  34   16   37 1
  35   16   38 1
  36   16   39 1
  37   17   18 ar
  38   17   19 ar
  39   20   21 1
  40   20   40 1
  41   20   41 1
  42   21   42 1
  43   21   43 1
@<TRIPOS>MOLECULE
ZINC000061146381
48    49    1     0     0
SMALL
USER_CHARGES
@<TRIPOS>ATOM
1      C1      1.7502   -2.9257    6.4989 C.3      1 ZINC000061146381   -0.1500
2      C2      1.2372   -3.6190    5.2351 C.3      1 ZINC000061146381   -0.0900
3      H3      1.6551   -4.6240    5.1772 H        1 ZINC000061146381    0.0800
4      C4      1.6654   -2.8170    4.0040 C.3      1 ZINC000061146381   -0.1300
5      C5      1.1799   -3.5322    2.7393 C.3      1 ZINC000061146381    0.1300
6      N6     -0.2697   -3.7477    2.8449 N.am     1 ZINC000061146381   -0.6300
7      C7     -1.0991   -3.3283    1.8689 C.2      1 ZINC000061146381    0.7100
8      O8     -0.7643   -2.4177    1.1361 O.2      1 ZINC000061146381   -0.5700
9      N9     -2.2998   -3.9183    1.7052 N.am     1 ZINC000061146381   -0.6300
10     C10    -3.1166   -3.5562    0.5292 C.3      1 ZINC000061146381    0.1100
11     C11    -4.6007   -3.4075    0.9105 C.3      1 ZINC000061146381   -0.1500
12     C12    -4.7089   -2.7203    2.2537 C.3      1 ZINC000061146381    0.0100
13     N13    -4.7876   -3.7298    3.3071 N.4      1 ZINC000061146381   -0.3400
14     H14    -5.2865   -4.5289    2.9456 H        1 ZINC000061146381    0.4200
15     C15    -5.5582   -3.1725    4.4266 C.3      1 ZINC000061146381   -0.0900
16     C16    -6.9901   -2.9733    4.0010 C.2      1 ZINC000061146381    0.4900
17     O17    -7.3185   -3.1888    2.8468 O.co2    1 ZINC000061146381   -0.6700
18     O18    -7.8200   -2.5967    4.8108 O.co2    1 ZINC000061146381   -0.6400
19     C19    -3.5408   -4.1703    3.8040 C.3      1 ZINC000061146381   -0.0600
20     C20    -2.7402   -4.8891    2.6857 C.3      1 ZINC000061146381    0.0400
21     C21    -0.7977   -4.4296    4.0344 C.3      1 ZINC000061146381    0.0800
22     H22    -1.8873   -4.4061    4.0155 H        1 ZINC000061146381    0.1300
23     C23    -0.3162   -5.8818    4.0493 C.3      1 ZINC000061146381   -0.1800
24     C24    -0.2901   -3.7040    5.2844 C.3      1 ZINC000061146381   -0.1300
25     H25     1.4457   -3.4971    7.3758 H        1 ZINC000061146381    0.0600
26     H26     2.8380   -2.8655    6.4642 H        1 ZINC000061146381    0.0600
27     H27     1.3323   -1.9207    6.5570 H        1 ZINC000061146381    0.0500
28     H28     1.2273   -1.8199    4.0490 H        1 ZINC000061146381    0.0700
29     H29     2.7522   -2.7367    3.9821 H        1 ZINC000061146381    0.0800
30     H30     1.3951   -2.9166    1.8659 H        1 ZINC000061146381    0.0900
31     H31     1.6862   -4.4929    2.6456 H        1 ZINC000061146381    0.0700
32     H32    -2.7560   -2.6124    0.1202 H        1 ZINC000061146381    0.1100
33     H33    -3.0180   -4.3341   -0.2280 H        1 ZINC000061146381    0.0800
34     H34    -5.1120   -2.8110    0.1549 H        1 ZINC000061146381    0.1200
35     H35    -5.0616   -4.3935    0.9685 H        1 ZINC000061146381    0.0900
36     H36    -3.8309   -2.0946    2.4141 H        1 ZINC000061146381    0.1100
37     H37    -5.6061   -2.1017    2.2748 H        1 ZINC000061146381    0.1500
38     H38    -5.5225   -3.8611    5.2708 H        1 ZINC000061146381    0.1200
39     H39    -5.1301   -2.2143    4.7210 H        1 ZINC000061146381    0.1200
40     H40    -2.9715   -3.3126    4.1623 H        1 ZINC000061146381    0.1300
41     H41    -3.7054   -4.8621    4.6301 H        1 ZINC000061146381    0.1400
42     H42    -3.3769   -5.6314    2.2043 H        1 ZINC000061146381    0.1000
43     H43    -1.8734   -5.3852    3.1224 H        1 ZINC000061146381    0.1600
44     H44     0.7733   -5.9031    4.0732 H        1 ZINC000061146381    0.0800
45     H45    -0.7090   -6.3858    4.9323 H        1 ZINC000061146381    0.0800
46     H46    -0.6699   -6.3910    3.1528 H        1 ZINC000061146381    0.0700
47     H47    -0.5949   -4.2551    6.1740 H        1 ZINC000061146381    0.0800
48     H48    -0.7098   -2.6986    5.3171 H        1 ZINC000061146381    0.0700
@<TRIPOS>BOND
1     1     2     1
2     1     25    1
3     1     26    1
4     1     27    1
5     2     3     1
6     2     24    1
7     2     4     1
8     4     5     1
9     4     28    1
10    4     29    1
11    5     6     1
12    5     30    1
13    5     31    1
14    6     7     am
15    6     21    1
16    7     8     2
17    7     9     am
18    9     20    1
19    9     10    1
20    10    11    1
21    10    32    1
22    10    33    1
23    11    12    1
24    11    34    1
25    11    35    1
26    12    13    1
27    12    36    1
28    12    37    1
29    13    14    1
30    13    15    1
31    13    19    1
32    15    16    1
33    15    38    1
34    15    39    1
35    16    17    ar
36    16    18    ar
37    19    20    1
38    19    40    1
39    19    41    1
40    20    42    1
41    20    43    1
42    21    22    1
43    21    23    1
44    21    24    1
45    23    44    1
46    23    45    1
47    23    46    1
48    24    47    1
49    24    48    1
@<TRIPOS>SUBSTRUCTURE
1   ZINC000061146381 1     RESIDUE    1   A     ZIN   1

@<TRIPOS>MOLECULE
ZINC000061146381
48    49    1     0     0
SMALL
USER_CHARGES
@<TRIPOS>ATOM
1      C1      2.5473   -5.9769    5.5273 C.3      1 ZINC000061146381   -0.1500
2      C2      1.3348   -5.1101    5.1818 C.3      1 ZINC000061146381   -0.0900
3      H3      0.8850   -4.7322    6.0999 H        1 ZINC000061146381    0.0800
4      C4      0.3078   -5.9506    4.4194 C.3      1 ZINC000061146381   -0.1400
5      C5     -0.9193   -5.0890    4.1055 C.3      1 ZINC000061146381    0.0400
6      N6     -0.4796   -3.8815    3.3932 N.am     1 ZINC000061146381   -0.6200
7      C7     -1.0293   -3.5437    2.2099 C.2      1 ZINC000061146381    0.7100
8      O8     -0.4349   -2.8000    1.4537 O.2      1 ZINC000061146381   -0.5700
9      N9     -2.2378   -4.0305    1.8648 N.am     1 ZINC000061146381   -0.6300
10     C10    -2.8586   -3.5687    0.6068 C.3      1 ZINC000061146381    0.1200
11     C11    -3.5232   -4.7368   -0.1440 C.3      1 ZINC000061146381   -0.1500
12     C12    -2.6471   -5.9656   -0.0398 C.3      1 ZINC000061146381    0.0100
13     N13    -3.0778   -6.7695    1.1018 N.4      1 ZINC000061146381   -0.3500
14     H14    -4.0779   -6.6762    1.1977 H        1 ZINC000061146381    0.4200
15     C15    -2.7708   -8.1780    0.8191 C.3      1 ZINC000061146381   -0.0900
16     C16    -3.6250   -8.6583   -0.3258 C.2      1 ZINC000061146381    0.4900
17     O17    -4.4936   -7.9354   -0.7834 O.co2    1 ZINC000061146381   -0.6700
18     O18    -3.4474   -9.7697   -0.7945 O.co2    1 ZINC000061146381   -0.6400
19     C19    -2.4779   -6.4245    2.3333 C.3      1 ZINC000061146381   -0.0600
20     C20    -2.8785   -4.9921    2.7381 C.3      1 ZINC000061146381    0.0600
21     C21     0.5704   -3.0489    3.9957 C.3      1 ZINC000061146381    0.1600
22     H22     0.8623   -2.2658    3.2960 H        1 ZINC000061146381    0.1000
23     C23     0.0452   -2.4146    5.2852 C.3      1 ZINC000061146381   -0.1600
24     C24     1.7808   -3.9335    4.3107 C.3      1 ZINC000061146381   -0.1200
25     H25     3.2786   -5.3785    6.0707 H        1 ZINC000061146381    0.0600
26     H26     2.2299   -6.8147    6.1482 H        1 ZINC000061146381    0.0600
27     H27     2.9972   -6.3549    4.6093 H        1 ZINC000061146381    0.0500
28     H28     0.7490   -6.3082    3.4890 H        1 ZINC000061146381    0.0700
29     H29     0.0081   -6.8015    5.0311 H        1 ZINC000061146381    0.0800
30     H30    -1.6103   -5.6521    3.4781 H        1 ZINC000061146381    0.1200
31     H31    -1.4141   -4.8055    5.0344 H        1 ZINC000061146381    0.0800
32     H32    -3.6124   -2.8153    0.8355 H        1 ZINC000061146381    0.0800
33     H33    -2.0920   -3.1250   -0.0285 H        1 ZINC000061146381    0.1100
34     H34    -4.4970   -4.9462    0.2985 H        1 ZINC000061146381    0.0900
35     H35    -3.6505   -4.4692   -1.1929 H        1 ZINC000061146381    0.1200
36     H36    -2.7353   -6.5540   -0.9531 H        1 ZINC000061146381    0.1400
37     H37    -1.6096   -5.6621    0.0996 H        1 ZINC000061146381    0.1100
38     H38    -1.7183   -8.2739    0.5523 H        1 ZINC000061146381    0.1200
39     H39    -2.9776   -8.7797    1.7041 H        1 ZINC000061146381    0.1300
40     H40    -2.8056   -7.1234    3.1029 H        1 ZINC000061146381    0.1400
41     H41    -1.3938   -6.4812    2.2353 H        1 ZINC000061146381    0.1300
42     H42    -2.5693   -4.8065    3.7667 H        1 ZINC000061146381    0.1500
43     H43    -3.9603   -4.8829    2.6607 H        1 ZINC000061146381    0.1000
44     H44    -0.2415   -3.1992    5.9855 H        1 ZINC000061146381    0.0600
45     H45     0.8255   -1.7974    5.7306 H        1 ZINC000061146381    0.0700
46     H46    -0.8226   -1.7953    5.0583 H        1 ZINC000061146381    0.0600
47     H47     2.5295   -3.3488    4.8451 H        1 ZINC000061146381    0.0800
48     H48     2.2079   -4.3100    3.3812 H        1 ZINC000061146381    0.0700
@<TRIPOS>BOND
1     1     2     1
2     1     25    1
3     1     26    1
4     1     27    1
5     2     3     1
6     2     24    1
7     2     4     1
8     4     5     1
9     4     28    1
10    4     29    1
11    5     6     1
12    5     30    1
13    5     31    1
14    6     7     am
15    6     21    1
16    7     8     2
17    7     9     am
18    9     20    1
19    9     10    1
20    10    11    1
21    10    32    1
22    10    33    1
23    11    12    1
24    11    34    1
25    11    35    1
26    12    13    1
27    12    36    1
28    12    37    1
29    13    14    1
30    13    15    1
31    13    19    1
32    15    16    1
33    15    38    1
34    15    39    1
35    16    17    ar
36    16    18    ar
37    19    20    1
38    19    40    1
39    19    41    1
40    20    42    1
41    20    43    1
42    21    22    1
43    21    23    1
44    21    24    1
45    23    44    1
46    23    45    1
47    23    46    1
48    24    47    1
49    24    48    1
@<TRIPOS>SUBSTRUCTURE
1   ZINC000061146381 1     RESIDUE    1   A     ZIN   1

@<TRIPOS>MOLECULE
ZINC000061146381
47    48    1     0     0
SMALL
USER_CHARGES
@<TRIPOS>ATOM
1      C1      0.6703    0.9006   -1.2070 C.3      1 ZINC000061146381   -0.1500
2      C2      0.2648   -0.5549   -0.9667 C.3      1 ZINC000061146381   -0.0900
3      H3      0.3439   -1.1128   -1.8998 H        1 ZINC000061146381    0.0700
4      C4     -1.1796   -0.6053   -0.4634 C.3      1 ZINC000061146381   -0.1300
5      C5     -1.5935   -2.0658   -0.2569 C.3      1 ZINC000061146381    0.0300
6      N6     -0.6208   -2.7114    0.6351 N.am     1 ZINC000061146381   -0.6300
7      C7     -1.0298   -3.3538    1.7471 C.2      1 ZINC000061146381    0.7100
8      O8     -0.2506   -3.5429    2.6612 O.2      1 ZINC000061146381   -0.5900
9      N9     -2.3023   -3.7865    1.8459 N.am     1 ZINC000061146381   -0.6100
10     C10    -2.6932   -4.5780    3.0289 C.3      1 ZINC000061146381    0.1300
11     C11    -4.0749   -4.1529    3.5540 C.3      1 ZINC000061146381   -0.1200
12     C12    -4.2054   -2.6477    3.4803 C.3      1 ZINC000061146381    0.0900
13     N13    -4.8179   -2.2825    2.2040 N.3      1 ZINC000061146381   -0.5300
14     C14    -5.6954   -1.1143    2.3563 C.3      1 ZINC000061146381    0.0000
15     C15    -6.9514   -1.5208    3.0831 C.2      1 ZINC000061146381    0.4900
16     O16    -7.1628   -2.6972    3.3238 O.co2    1 ZINC000061146381   -0.6700
17     O17    -7.7561   -0.6733    3.4305 O.co2    1 ZINC000061146381   -0.7100
18     C18    -3.9370   -2.1157    1.1100 C.3      1 ZINC000061146381    0.0500
19     C19    -3.2360   -3.4519    0.7898 C.3      1 ZINC000061146381    0.0700
20     C20     0.8061   -2.6437    0.2917 C.3      1 ZINC000061146381    0.1600
21     H21     1.3980   -3.0636    1.1050 H        1 ZINC000061146381    0.1000
22     C22     1.0629   -3.4362   -0.9917 C.3      1 ZINC000061146381   -0.1600
23     C23     1.1929   -1.1767    0.0793 C.3      1 ZINC000061146381   -0.1200
24     H24     1.6989    0.9367   -1.5659 H        1 ZINC000061146381    0.0500
25     H25     0.0097    1.3435   -1.9523 H        1 ZINC000061146381    0.0500
26     H26     0.5913    1.4586   -0.2740 H        1 ZINC000061146381    0.0500
27     H27    -1.2542   -0.0688    0.4825 H        1 ZINC000061146381    0.0600
28     H28    -1.8373   -0.1412   -1.1983 H        1 ZINC000061146381    0.0700
29     H29    -2.5849   -2.1043    0.1944 H        1 ZINC000061146381    0.1600
30     H30    -1.6067   -2.5811   -1.2173 H        1 ZINC000061146381    0.0600
31     H31    -2.7236   -5.6334    2.7581 H        1 ZINC000061146381    0.0600
32     H32    -1.9526   -4.4337    3.8156 H        1 ZINC000061146381    0.0800
33     H33    -4.8522   -4.6148    2.9453 H        1 ZINC000061146381    0.0900
34     H34    -4.1850   -4.4765    4.5890 H        1 ZINC000061146381    0.0700
35     H35    -4.8325   -2.2957    4.2994 H        1 ZINC000061146381    0.0700
36     H36    -3.2179   -2.1922    3.5542 H        1 ZINC000061146381    0.0200
37     H37    -5.1782   -0.3435    2.9277 H        1 ZINC000061146381    0.0300
38     H38    -5.9552   -0.7243    1.3722 H        1 ZINC000061146381    0.0600
39     H39    -4.5013   -1.7838    0.2385 H        1 ZINC000061146381    0.0800
40     H40    -3.1869   -1.3655    1.3606 H        1 ZINC000061146381    0.0200
41     H41    -2.6966   -3.3617   -0.1531 H        1 ZINC000061146381    0.1100
42     H42    -3.9823   -4.2420    0.7058 H        1 ZINC000061146381    0.0900
43     H43     0.4740   -3.0118   -1.8048 H        1 ZINC000061146381    0.0600
44     H44     2.1219   -3.3848   -1.2447 H        1 ZINC000061146381    0.0600
45     H45     0.7757   -4.4767   -0.8398 H        1 ZINC000061146381    0.0600
46     H46     2.2240   -1.1192   -0.2696 H        1 ZINC000061146381    0.0700
47     H47     1.0959   -0.6350    1.0202 H        1 ZINC000061146381    0.0700
@<TRIPOS>BOND
1     1     2     1
2     1     24    1
3     1     25    1
4     1     26    1
5     2     3     1
6     2     23    1
7     2     4     1
8     4     5     1
9     4     27    1
10    4     28    1
11    5     6     1
12    5     29    1
13    5     30    1
14    6     7     am
15    6     20    1
16    7     8     2
17    7     9     am
18    9     19    1
19    9     10    1
20    10    11    1
21    10    31    1
22    10    32    1
23    11    12    1
24    11    33    1
25    11    34    1
26    12    13    1
27    12    35    1
28    12    36    1
29    13    14    1
30    13    18    1
31    14    15    1
32    14    37    1
33    14    38    1
34    15    16    ar
35    15    17    ar
36    18    19    1
37    18    39    1
38    18    40    1
39    19    41    1
40    19    42    1
41    20    21    1
42    20    22    1
43    20    23    1
44    22    43    1
45    22    44    1
46    22    45    1
47    23    46    1
48    23    47    1
@<TRIPOS>SUBSTRUCTURE
1   ZINC000061146381 1     RESIDUE    1   A     ZIN   1
@<TRIPOS>MOLECULE
ZINC000061174018
42    42    1     0     0
SMALL
USER_CHARGES
@<TRIPOS>ATOM
1      C1      1.0649    0.4588   -0.0767 C.3      1 ZINC000061174018   -0.1900
2      C2      0.4786   -0.9165   -0.4018 C.3      1 ZINC000061174018    0.0700
3      N3     -0.9136   -0.9732    0.0505 N.am     1 ZINC000061174018   -0.6000
4      C4     -1.9172   -0.8618   -0.8422 C.2      1 ZINC000061174018    0.7200
5      O5     -3.0690   -1.0157   -0.4844 O.2      1 ZINC000061174018   -0.5400
6      N6     -1.6441   -0.5798   -2.1315 N.am     1 ZINC000061174018   -0.6500
7      C7     -0.4144    0.1363   -2.5062 C.3      1 ZINC000061174018    0.0200
8      C8      0.2846   -0.6528   -3.6191 C.3      1 ZINC000061174018    0.0700
9      H9      0.6503   -1.5989   -3.2201 H        1 ZINC000061174018    0.0600
10     C10     1.4606    0.1617   -4.1620 C.3      1 ZINC000061174018   -0.1400
11     O11    -0.6478   -0.9074   -4.6725 O.3      1 ZINC000061174018   -0.3800
12     C12    -1.7627   -1.7140   -4.2850 C.3      1 ZINC000061174018    0.0500
13     C13    -2.5638   -0.9842   -3.2067 C.3      1 ZINC000061174018    0.1400
14     H14    -3.0324   -0.0978   -3.6342 H        1 ZINC000061174018    0.0700
15     C15    -3.6398   -1.9157   -2.6450 C.3      1 ZINC000061174018   -0.1500
16     C16    -1.2150   -1.1511    1.4730 C.3      1 ZINC000061174018    0.1100
17     C17     0.0871   -1.3647    2.2474 C.3      1 ZINC000061174018   -0.1400
18     C18    -1.9253    0.0958    2.0037 C.3      1 ZINC000061174018   -0.1300
19     C19    -2.1080   -2.3519    1.6510 C.2      1 ZINC000061174018    0.5100
20     O20    -2.3687   -3.0646    0.6967 O.co2    1 ZINC000061174018   -0.6700
21     O21    -2.5699   -2.6107    2.7493 O.co2    1 ZINC000061174018   -0.7000
22     H22     2.1008    0.5010   -0.4132 H        1 ZINC000061174018    0.0600
23     H23     0.4860    1.2299   -0.5851 H        1 ZINC000061174018    0.0600
24     H24     1.0255    0.6253    0.9998 H        1 ZINC000061174018    0.0700
25     H25     0.5180   -1.0830   -1.4783 H        1 ZINC000061174018    0.1000
26     H26     1.0575   -1.6876    0.1065 H        1 ZINC000061174018    0.0700
27     H27    -0.6657    1.1341   -2.8659 H        1 ZINC000061174018    0.0600
28     H28     0.2442    0.2125   -1.6410 H        1 ZINC000061174018    0.1500
29     H29     2.1686    0.3585   -3.3569 H        1 ZINC000061174018    0.0700
30     H30     1.9570   -0.4000   -4.9532 H        1 ZINC000061174018    0.0600
31     H31     1.0939    1.1068   -4.5624 H        1 ZINC000061174018    0.0600
32     H32    -2.3984   -1.8969   -5.1514 H        1 ZINC000061174018    0.1000
33     H33    -1.4044   -2.6640   -3.8884 H        1 ZINC000061174018    0.0600
34     H34    -3.1672   -2.7108   -2.0683 H        1 ZINC000061174018    0.0700
35     H35    -4.3107   -1.3485   -1.9999 H        1 ZINC000061174018    0.0900
36     H36    -4.2081   -2.3515   -3.4668 H        1 ZINC000061174018    0.0500
37     H37     0.7330   -0.4962    2.1187 H        1 ZINC000061174018    0.0500
38     H38    -0.1371   -1.4970    3.3059 H        1 ZINC000061174018    0.0700
39     H39     0.5931   -2.2530    1.8694 H        1 ZINC000061174018    0.0500
40     H40    -2.8530    0.2480    1.4520 H        1 ZINC000061174018    0.0600
41     H41    -2.1496   -0.0365    3.0621 H        1 ZINC000061174018    0.0600
42     H42    -1.2794    0.9643    1.8749 H        1 ZINC000061174018    0.0300
@<TRIPOS>BOND
1     1     2     1
2     1     22    1
3     1     23    1
4     1     24    1
5     2     3     1
6     2     25    1
7     2     26    1
8     3     4     am
9     3     16    1
10    4     5     2
11    4     6     am
12    6     13    1
13    6     7     1
14    7     8     1
15    7     27    1
16    7     28    1
17    8     9     1
18    8     10    1
19    8     11    1
20    10    29    1
21    10    30    1
22    10    31    1
23    11    12    1
24    12    13    1
25    12    32    1
26    12    33    1
27    13    14    1
28    13    15    1
29    15    34    1
30    15    35    1
31    15    36    1
32    16    17    1
33    16    18    1
34    16    19    1
35    17    37    1
36    17    38    1
37    17    39    1
38    18    40    1
39    18    41    1
40    18    42    1
41    19    20    ar
42    19    21    ar
@<TRIPOS>SUBSTRUCTURE
1   ZINC000061174018 1     RESIDUE    1   A     ZIN   1
@<TRIPOS>MOLECULE
ZINC000061176610
43    44    1     0     0
SMALL
USER_CHARGES
@<TRIPOS>ATOM
1      C1     -0.3439   -1.5235   -0.2650 C.3      1 ZINC000061176610   -0.2100
2      C2      0.2965   -0.1626    0.0158 C.3      1 ZINC000061176610    0.1000
3      N3      0.6366   -0.0671    1.4376 N.am     1 ZINC000061176610   -0.6200
4      C4     -0.1668   -0.6297    2.3620 C.2      1 ZINC000061176610    0.7500
5      O5      0.3151   -1.1606    3.3440 O.2      1 ZINC000061176610   -0.5700
6      N6     -1.5042   -0.6040    2.1978 N.am     1 ZINC000061176610   -0.6200
7      C7     -2.0833   -0.5002    0.8500 C.3      1 ZINC000061176610    0.0200
8      C8     -3.1204    0.6311    0.8786 C.3      1 ZINC000061176610    0.0400
9      O9     -4.0597    0.3586    1.9177 O.3      1 ZINC000061176610   -0.3800
10     C10    -3.5265    0.3575    3.2425 C.3      1 ZINC000061176610    0.0800
11     H11    -3.2160    1.3539    3.5569 H        1 ZINC000061176610    0.0800
12     C12    -4.6129   -0.2391    4.1781 C.3      1 ZINC000061176610   -0.1200
13     C13    -4.5230   -1.7609    3.9390 C.3      1 ZINC000061176610   -0.1100
14     C14    -3.1010   -2.0395    3.4169 C.3      1 ZINC000061176610   -0.1300
15     C15    -2.3884   -0.6849    3.3554 C.3      1 ZINC000061176610    0.1400
16     H16    -1.8247   -0.5198    4.2736 H        1 ZINC000061176610    0.1000
17     C17     1.8500    0.6401    1.8546 C.3      1 ZINC000061176610    0.1200
18     C18     2.7679   -0.3234    2.6094 C.3      1 ZINC000061176610   -0.1400
19     C19     2.5776    1.1761    0.6200 C.3      1 ZINC000061176610   -0.1300
20     C20     1.4772    1.7888    2.7560 C.2      1 ZINC000061176610    0.5000
21     O21     0.3115    1.9675    3.0654 O.co2    1 ZINC000061176610   -0.6800
22     O22     2.3413    2.5394    3.1760 O.co2    1 ZINC000061176610   -0.7000
23     H23    -1.0826   -1.7435    0.5058 H        1 ZINC000061176610    0.1000
24     H24    -0.8314   -1.5015   -1.2397 H        1 ZINC000061176610    0.0700
25     H25     0.4260   -2.2951   -0.2612 H        1 ZINC000061176610    0.0500
26     H26     1.2016   -0.0567   -0.5822 H        1 ZINC000061176610    0.0800
27     H27    -0.4055    0.6298   -0.2439 H        1 ZINC000061176610    0.0600
28     H28    -1.3008   -0.2668    0.1280 H        1 ZINC000061176610    0.1500
29     H29    -2.5673   -1.4393    0.5818 H        1 ZINC000061176610    0.0600
30     H30    -2.6217    1.5801    1.0754 H        1 ZINC000061176610    0.0600
31     H31    -3.6378    0.6779   -0.0796 H        1 ZINC000061176610    0.0900
32     H32    -4.3919   -0.0027    5.2189 H        1 ZINC000061176610    0.0800
33     H33    -5.5998    0.1328    3.9026 H        1 ZINC000061176610    0.0800
34     H34    -4.6894   -2.2964    4.8736 H        1 ZINC000061176610    0.0600
35     H35    -5.2602   -2.0666    3.1964 H        1 ZINC000061176610    0.0600
36     H36    -2.5756   -2.7069    4.1000 H        1 ZINC000061176610    0.0700
37     H37    -3.1477   -2.4825    2.4221 H        1 ZINC000061176610    0.0600
38     H38     3.0376   -1.1542    1.9573 H        1 ZINC000061176610    0.0400
39     H39     3.6707    0.2028    2.9196 H        1 ZINC000061176610    0.0600
40     H40     2.2496   -0.7052    3.4889 H        1 ZINC000061176610    0.0800
41     H41     1.9236    1.8625    0.0823 H        1 ZINC000061176610    0.0500
42     H42     3.4804    1.7023    0.9302 H        1 ZINC000061176610    0.0700
43     H43     2.8472    0.3453   -0.0320 H        1 ZINC000061176610    0.0500
@<TRIPOS>BOND
1     1     2     1
2     1     23    1
3     1     24    1
4     1     25    1
5     2     3     1
6     2     26    1
7     2     27    1
8     3     4     am
9     3     17    1
10    4     5     2
11    4     6     am
12    6     15    1
13    6     7     1
14    7     8     1
15    7     28    1
16    7     29    1
17    8     9     1
18    8     30    1
19    8     31    1
20    9     10    1
21    10    11    1
22    10    15    1
23    10    12    1
24    12    13    1
25    12    32    1
26    12    33    1
27    13    14    1
28    13    34    1
29    13    35    1
30    14    15    1
31    14    36    1
32    14    37    1
33    15    16    1
34    17    18    1
35    17    19    1
36    17    20    1
37    18    38    1
38    18    39    1
39    18    40    1
40    19    41    1
41    19    42    1
42    19    43    1
43    20    21    ar
44    20    22    ar
@<TRIPOS>SUBSTRUCTURE
1   ZINC000061176610 1     RESIDUE    1   A     ZIN   1
@<TRIPOS>MOLECULE
ZINC000062744009
42    42    1     0     0
SMALL
USER_CHARGES
@<TRIPOS>ATOM
1      C1      0.4324    1.4293   -0.2692 C.3      1 ZINC000062744009   -0.1300
2      C2     -0.0087   -0.0320   -0.1645 C.3      1 ZINC000062744009   -0.1100
3      C3      0.7180   -0.8613   -1.2250 C.3      1 ZINC000062744009   -0.1400
4      C4      0.3337   -0.5697    1.2264 C.3      1 ZINC000062744009    0.1500
5      N5     -0.4531    0.1458    2.2339 N.am     1 ZINC000062744009   -0.5900
6      C6     -1.7693   -0.3606    2.6308 C.3      1 ZINC000062744009    0.0000
7      C7     -1.5998   -1.6235    3.4354 C.2      1 ZINC000062744009    0.4800
8      O8     -0.4832   -2.0601    3.6568 O.co2    1 ZINC000062744009   -0.6700
9      O9     -2.5794   -2.2087    3.8650 O.co2    1 ZINC000062744009   -0.6900
10     C10     0.0338    1.2700    2.7957 C.2      1 ZINC000062744009    0.7200
11     O11     1.0264    1.7994    2.3345 O.2      1 ZINC000062744009   -0.5900
12     N12    -0.5797    1.8074    3.8688 N.am     1 ZINC000062744009   -0.6400
13     C13    -1.4301    0.9864    4.7452 C.3      1 ZINC000062744009    0.0300
14     C14    -2.7723    1.7043    4.9271 C.3      1 ZINC000062744009    0.0700
15     H15    -3.3122    1.7123    3.9802 H        1 ZINC000062744009    0.0600
16     C16    -3.6037    0.9735    5.9833 C.3      1 ZINC000062744009   -0.1400
17     O17    -2.5334    3.0483    5.3519 O.3      1 ZINC000062744009   -0.3800
18     C18    -1.8098    3.8408    4.4074 C.3      1 ZINC000062744009    0.0500
19     C19    -0.4138    3.2310    4.2020 C.3      1 ZINC000062744009    0.1300
20     H20     0.1699    3.3340    5.1168 H        1 ZINC000062744009    0.0700
21     C21     0.2979    3.9483    3.0532 C.3      1 ZINC000062744009   -0.1400
22     H22     1.5083    1.4964   -0.1085 H        1 ZINC000062744009    0.0600
23     H23     0.1884    1.8124   -1.2600 H        1 ZINC000062744009    0.0300
24     H24    -0.0854    2.0202    0.4864 H        1 ZINC000062744009    0.0600
25     H25    -1.0847   -0.0991   -0.3252 H        1 ZINC000062744009    0.0600
26     H26     1.7940   -0.7942   -1.0643 H        1 ZINC000062744009    0.0500
27     H27     0.4038   -1.9024   -1.1504 H        1 ZINC000062744009    0.0500
28     H28     0.4741   -0.4783   -2.2159 H        1 ZINC000062744009    0.0500
29     H29     0.1012   -1.6336    1.2720 H        1 ZINC000062744009    0.0800
30     H30     1.3957   -0.4212    1.4220 H        1 ZINC000062744009    0.0700
31     H31    -2.2801    0.3892    3.2348 H        1 ZINC000062744009    0.1000
32     H32    -2.3602   -0.5739    1.7401 H        1 ZINC000062744009    0.0600
33     H33    -1.5947    0.0107    4.2879 H        1 ZINC000062744009    0.1500
34     H34    -0.9463    0.8614    5.7139 H        1 ZINC000062744009    0.0700
35     H35    -3.0640    0.9675    6.9303 H        1 ZINC000062744009    0.0600
36     H36    -4.5578    1.4845    6.1121 H        1 ZINC000062744009    0.0600
37     H37    -3.7816   -0.0521    5.6600 H        1 ZINC000062744009    0.0900
38     H38    -2.3462    3.8565    3.4586 H        1 ZINC000062744009    0.0500
39     H39    -1.7094    4.8578    4.7865 H        1 ZINC000062744009    0.1000
40     H40     0.2648    5.0248    3.2209 H        1 ZINC000062744009    0.0500
41     H41     1.3361    3.6195    3.0072 H        1 ZINC000062744009    0.0900
42     H42    -0.2002    3.7117    2.1130 H        1 ZINC000062744009    0.0600
@<TRIPOS>BOND
1     1     2     1
2     1     22    1
3     1     23    1
4     1     24    1
5     2     3     1
6     2     4     1
7     2     25    1
8     3     26    1
9     3     27    1
10    3     28    1
11    4     5     1
12    4     29    1
13    4     30    1
14    5     6     1
15    5     10    am
16    6     7     1
17    6     31    1
18    6     32    1
19    7     8     ar
20    7     9     ar
21    10    11    2
22    10    12    am
23    12    19    1
24    12    13    1
25    13    14    1
26    13    33    1
27    13    34    1
28    14    15    1
29    14    16    1
30    14    17    1
31    16    35    1
32    16    36    1
33    16    37    1
34    17    18    1
35    18    19    1
36    18    38    1
37    18    39    1
38    19    20    1
39    19    21    1
40    21    40    1
41    21    41    1
42    21    42    1
@<TRIPOS>SUBSTRUCTURE
1   ZINC000062744009 1     RESIDUE    1   A     ZIN   1
@<TRIPOS>MOLECULE
ZINC000063074403
40    41    1     0     0
SMALL
USER_CHARGES
@<TRIPOS>ATOM
1      C1     -0.1603    1.4973    0.1209 C.3      1 ZINC000063074403    0.0300
2      O2     -0.0910    0.0706    0.0780 O.3      1 ZINC000063074403   -0.3800
3      C3     -1.3667   -0.5731    0.0658 C.3      1 ZINC000063074403    0.0800
4      H4     -2.1110    0.0294    0.5864 H        1 ZINC000063074403    0.0900
5      C5     -1.2772   -1.9966    0.6767 C.3      1 ZINC000063074403   -0.1000
6      C6     -2.4423   -2.7408   -0.0090 C.3      1 ZINC000063074403    0.0900
7      H7     -2.1450   -3.7643   -0.2376 H        1 ZINC000063074403    0.0700
8      C8     -3.6486   -2.7474    0.8943 C.2      1 ZINC000063074403    0.5000
9      O9     -4.4494   -1.8293    0.8486 O.co2    1 ZINC000063074403   -0.6800
10     O10    -3.8236   -3.6710    1.6708 O.co2    1 ZINC000063074403   -0.7000
11     N11    -2.7492   -2.0196   -1.2529 N.am     1 ZINC000063074403   -0.6000
12     C12    -3.7216   -2.3423   -2.1285 C.2      1 ZINC000063074403    0.7500
13     O13    -4.3950   -3.3386   -1.9492 O.2      1 ZINC000063074403   -0.5700
14     N14    -3.9475   -1.5606   -3.2030 N.am     1 ZINC000063074403   -0.6300
15     C15    -3.1267   -0.4071   -3.6140 C.3      1 ZINC000063074403    0.0900
16     C16    -3.3847   -0.2585   -5.1342 C.3      1 ZINC000063074403   -0.1300
17     C17    -4.8906   -0.6191   -5.2314 C.3      1 ZINC000063074403   -0.1200
18     C18    -5.0496   -1.7210   -4.1627 C.3      1 ZINC000063074403    0.1800
19     C19    -4.9780   -3.0997   -4.8223 C.3      1 ZINC000063074403   -0.1600
20     C20    -6.3879   -1.5557   -3.4399 C.3      1 ZINC000063074403   -0.1600
21     C21    -1.8182   -0.8834   -1.3832 C.3      1 ZINC000063074403    0.0800
22     H22     0.8486    1.9100    0.1277 H        1 ZINC000063074403    0.0800
23     H23    -0.6959    1.8616   -0.7557 H        1 ZINC000063074403    0.0400
24     H24    -0.6862    1.8085    1.0234 H        1 ZINC000063074403    0.0400
25     H25    -0.3234   -2.4628    0.4300 H        1 ZINC000063074403    0.0800
26     H26    -1.4234   -1.9627    1.7563 H        1 ZINC000063074403    0.0800
27     H27    -3.4442    0.4919   -3.0857 H        1 ZINC000063074403    0.0600
28     H28    -2.0716   -0.6060   -3.4260 H        1 ZINC000063074403    0.0800
29     H29    -3.2062    0.7655   -5.4626 H        1 ZINC000063074403    0.0800
30     H30    -2.7771   -0.9613   -5.7042 H        1 ZINC000063074403    0.0700
31     H31    -5.5104    0.2456   -4.9941 H        1 ZINC000063074403    0.0800
32     H32    -5.1312   -1.0074   -6.2210 H        1 ZINC000063074403    0.0800
33     H33    -4.0245   -3.2059   -5.3397 H        1 ZINC000063074403    0.0500
34     H34    -5.0650   -3.8727   -4.0587 H        1 ZINC000063074403    0.0800
35     H35    -5.7933   -3.2028   -5.5383 H        1 ZINC000063074403    0.0600
36     H36    -7.2029   -1.6591   -4.1562 H        1 ZINC000063074403    0.0600
37     H37    -6.4818   -2.3211   -2.6696 H        1 ZINC000063074403    0.0700
38     H38    -6.4324   -0.5689   -2.9789 H        1 ZINC000063074403    0.0500
39     H39    -2.3284   -0.0225   -1.8153 H        1 ZINC000063074403    0.0800
40     H40    -0.9609   -1.1638   -1.9952 H        1 ZINC000063074403    0.0700
@<TRIPOS>BOND
1     1     2     1
2     1     22    1
3     1     23    1
4     1     24    1
5     2     3     1
6     3     4     1
7     3     21    1
8     3     5     1
9     5     6     1
10    5     25    1
11    5     26    1
12    6     7     1
13    6     8     1
14    6     11    1
15    8     9     ar
16    8     10    ar
17    11    12    am
18    11    21    1
19    12    13    2
20    12    14    am
21    14    18    1
22    14    15    1
23    15    16    1
24    15    27    1
25    15    28    1
26    16    17    1
27    16    29    1
28    16    30    1
29    17    18    1
30    17    31    1
31    17    32    1
32    18    19    1
33    18    20    1
34    19    33    1
35    19    34    1
36    19    35    1
37    20    36    1
38    20    37    1
39    20    38    1
40    21    39    1
41    21    40    1
@<TRIPOS>SUBSTRUCTURE
1   ZINC000063074403 1     RESIDUE    1   A     ZIN   1
@<TRIPOS>MOLECULE
ZINC000069457321
47    47    1     0     0
SMALL
USER_CHARGES
@<TRIPOS>ATOM
1      C1     -1.3107   -4.2905    0.2190 C.3      1 ZINC000069457321   -0.1600
2      C2     -0.9547   -3.4362    1.4374 C.3      1 ZINC000069457321   -0.1200
3      C3      0.3369   -2.6646    1.1593 C.3      1 ZINC000069457321    0.1700
4      C4      1.4712   -3.6526    0.8800 C.3      1 ZINC000069457321   -0.1900
5      C5      0.1380   -1.7591   -0.0579 C.3      1 ZINC000069457321   -0.1900
6      N6      0.6778   -1.8466    2.3259 N.am     1 ZINC000069457321   -0.6600
7      C7     -0.3856   -1.2695    3.1519 C.3      1 ZINC000069457321    0.1100
8      C8      1.9698   -1.6250    2.6392 C.2      1 ZINC000069457321    0.7300
9      O9      2.3661   -1.8355    3.7692 O.2      1 ZINC000069457321   -0.5500
10     N10     2.8225   -1.1701    1.6998 N.am     1 ZINC000069457321   -0.6400
11     C11     2.5533   -1.4838    0.2820 C.3      1 ZINC000069457321    0.0200
12     C12     3.8505   -1.8571   -0.4584 C.3      1 ZINC000069457321   -0.1500
13     C13     4.7165   -2.7099    0.4421 C.3      1 ZINC000069457321    0.0000
14     N14     5.6569   -1.8524    1.1601 N.4      1 ZINC000069457321   -0.3400
15     H15     5.9083   -1.0822    0.5587 H        1 ZINC000069457321    0.4200
16     C16     6.8698   -2.6309    1.4443 C.3      1 ZINC000069457321   -0.0900
17     C17     7.4973   -3.0745    0.1480 C.2      1 ZINC000069457321    0.4900
18     O18     7.0532   -2.6715   -0.9136 O.co2    1 ZINC000069457321   -0.6700
19     O19     8.4491   -3.8364    0.1607 O.co2    1 ZINC000069457321   -0.6400
20     C20     5.1727   -1.3269    2.3786 C.3      1 ZINC000069457321   -0.0500
21     C21     3.9669   -0.3860    2.1165 C.3      1 ZINC000069457321    0.1200
22     H22    -2.2308   -4.8403    0.4171 H        1 ZINC000069457321    0.0600
23     H23    -1.4524   -3.6454   -0.6481 H        1 ZINC000069457321    0.0600
24     H24    -0.5026   -4.9944    0.0201 H        1 ZINC000069457321    0.0600
25     H25    -1.7628   -2.7324    1.6363 H        1 ZINC000069457321    0.0700
26     H26    -0.8130   -4.0813    2.3045 H        1 ZINC000069457321    0.0700
27     H27     2.4165   -3.2240    1.2130 H        1 ZINC000069457321    0.0800
28     H28     1.2842   -4.5820    1.4179 H        1 ZINC000069457321    0.0700
29     H29     1.5212   -3.8555   -0.1897 H        1 ZINC000069457321    0.0900
30     H30    -0.9240   -1.5492   -0.1849 H        1 ZINC000069457321    0.0600
31     H31     0.6777   -0.8242    0.0927 H        1 ZINC000069457321    0.0800
32     H32     0.5186   -2.2590   -0.9486 H        1 ZINC000069457321    0.0700
33     H33    -0.7065   -2.0006    3.8940 H        1 ZINC000069457321    0.0500
34     H34    -0.0106   -0.3795    3.6572 H        1 ZINC000069457321    0.0600
35     H35    -1.2309   -0.9991    2.5192 H        1 ZINC000069457321    0.0700
36     H36     1.8565   -2.3202    0.2268 H        1 ZINC000069457321    0.1600
37     H37     2.1052   -0.6138   -0.1980 H        1 ZINC000069457321    0.0800
38     H38     3.6054   -2.4154   -1.3619 H        1 ZINC000069457321    0.1200
39     H39     4.3897   -0.9488   -0.7273 H        1 ZINC000069457321    0.0900
40     H40     4.0871   -3.2389    1.1578 H        1 ZINC000069457321    0.1100
41     H41     5.2686   -3.4311   -0.1605 H        1 ZINC000069457321    0.1500
42     H42     7.5769   -2.0128    1.9975 H        1 ZINC000069457321    0.1200
43     H43     6.6088   -3.5058    2.0397 H        1 ZINC000069457321    0.1200
44     H44     4.8586   -2.1460    3.0256 H        1 ZINC000069457321    0.1300
45     H45     5.9669   -0.7655    2.8706 H        1 ZINC000069457321    0.1300
46     H46     4.2265    0.3261    1.3332 H        1 ZINC000069457321    0.1000
47     H47     3.7243    0.1554    3.0310 H        1 ZINC000069457321    0.1100
@<TRIPOS>BOND
1     1     2     1
2     1     22    1
3     1     23    1
4     1     24    1
5     2     3     1
6     2     25    1
7     2     26    1
8     3     4     1
9     3     5     1
10    3     6     1
11    4     27    1
12    4     28    1
13    4     29    1
14    5     30    1
15    5     31    1
16    5     32    1
17    6     7     1
18    6     8     am
19    7     33    1
20    7     34    1
21    7     35    1
22    8     9     2
23    8     10    am
24    10    21    1
25    10    11    1
26    11    12    1
27    11    36    1
28    11    37    1
29    12    13    1
30    12    38    1
31    12    39    1
32    13    14    1
33    13    40    1
34    13    41    1
35    14    15    1
36    14    16    1
37    14    20    1
38    16    17    1
39    16    42    1
40    16    43    1
41    17    18    ar
42    17    19    ar
43    20    21    1
44    20    44    1
45    20    45    1
46    21    46    1
47    21    47    1
@<TRIPOS>SUBSTRUCTURE
1   ZINC000069457321 1     RESIDUE    1   A     ZIN   1

@<TRIPOS>MOLECULE
ZINC000069457321
47    47    1     0     0
SMALL
USER_CHARGES
@<TRIPOS>ATOM
1      C1     -4.7493    1.7048    0.2042 C.3      1 ZINC000069457321   -0.1600
2      C2     -4.8733    0.1813    0.1371 C.3      1 ZINC000069457321   -0.1200
3      C3     -3.4808   -0.4382    0.0019 C.3      1 ZINC000069457321    0.1900
4      C4     -2.8157    0.0762   -1.2764 C.3      1 ZINC000069457321   -0.1600
5      C5     -2.6296   -0.0486    1.2120 C.3      1 ZINC000069457321   -0.1700
6      N6     -3.5995   -1.8970   -0.0624 N.am     1 ZINC000069457321   -0.6200
7      C7     -4.9199   -2.5281    0.0048 C.3      1 ZINC000069457321    0.0200
8      C8     -2.4940   -2.6583   -0.1832 C.2      1 ZINC000069457321    0.7100
9      O9     -1.3935   -2.1563   -0.0594 O.2      1 ZINC000069457321   -0.5600
10     N10    -2.6083   -3.9762   -0.4413 N.am     1 ZINC000069457321   -0.6300
11     C11    -1.3794   -4.7788   -0.6054 C.3      1 ZINC000069457321    0.1200
12     C12    -1.5108   -6.1424    0.0969 C.3      1 ZINC000069457321   -0.1500
13     C13    -2.2277   -5.9619    1.4166 C.3      1 ZINC000069457321    0.0100
14     N14    -3.6576   -6.1932    1.2243 N.4      1 ZINC000069457321   -0.3500
15     H15    -3.7729   -6.9019    0.5154 H        1 ZINC000069457321    0.4200
16     C16    -4.2179   -6.7037    2.4826 C.3      1 ZINC000069457321   -0.0900
17     C17    -3.6555   -8.0733    2.7637 C.2      1 ZINC000069457321    0.4900
18     O18    -2.7989   -8.5422    2.0338 O.co2    1 ZINC000069457321   -0.6700
19     O19    -4.0572   -8.7125    3.7212 O.co2    1 ZINC000069457321   -0.6400
20     C20    -4.3987   -5.0537    0.8400 C.3      1 ZINC000069457321   -0.0500
21     C21    -3.9319   -4.5558   -0.5421 C.3      1 ZINC000069457321    0.0300
22     H22    -5.7413    2.1461    0.3005 H        1 ZINC000069457321    0.0600
23     H23    -4.1429    1.9824    1.0663 H        1 ZINC000069457321    0.0600
24     H24    -4.2755    2.0712   -0.7065 H        1 ZINC000069457321    0.0600
25     H25    -5.3471   -0.1851    1.0478 H        1 ZINC000069457321    0.0700
26     H26    -5.4797   -0.0963   -0.7250 H        1 ZINC000069457321    0.0700
27     H27    -2.7274    1.1615   -1.2286 H        1 ZINC000069457321    0.0700
28     H28    -1.8237   -0.3652   -1.3727 H        1 ZINC000069457321    0.0700
29     H29    -3.4222   -0.2014   -2.1385 H        1 ZINC000069457321    0.0500
30     H30    -3.1034   -0.4150    2.1227 H        1 ZINC000069457321    0.0500
31     H31    -1.6376   -0.4899    1.1157 H        1 ZINC000069457321    0.0900
32     H32    -2.5413    1.0368    1.2598 H        1 ZINC000069457321    0.0700
33     H33    -5.2973   -2.6892   -1.0050 H        1 ZINC000069457321    0.0700
34     H34    -4.8392   -3.4855    0.5195 H        1 ZINC000069457321    0.1000
35     H35    -5.6055   -1.8793    0.5497 H        1 ZINC000069457321    0.0800
36     H36    -1.1964   -4.9397   -1.6678 H        1 ZINC000069457321    0.0800
37     H37    -0.5374   -4.2353   -0.1767 H        1 ZINC000069457321    0.1000
38     H38    -2.0798   -6.8237   -0.5356 H        1 ZINC000069457321    0.0900
39     H39    -0.5184   -6.5561    0.2761 H        1 ZINC000069457321    0.1200
40     H40    -1.8382   -6.6752    2.1429 H        1 ZINC000069457321    0.1500
41     H41    -2.0690   -4.9470    1.7812 H        1 ZINC000069457321    0.1100
42     H42    -3.9555   -6.0289    3.2974 H        1 ZINC000069457321    0.1200
43     H43    -5.3028   -6.7667    2.3981 H        1 ZINC000069457321    0.1200
44     H44    -5.4572   -5.3100    0.7942 H        1 ZINC000069457321    0.1400
45     H45    -4.2527   -4.2630    1.5759 H        1 ZINC000069457321    0.1300
46     H46    -4.6280   -3.8020   -0.9098 H        1 ZINC000069457321    0.1600
47     H47    -3.9052   -5.3935   -1.2389 H        1 ZINC000069457321    0.1000
@<TRIPOS>BOND
1     1     2     1
2     1     22    1
3     1     23    1
4     1     24    1
5     2     3     1
6     2     25    1
7     2     26    1
8     3     4     1
9     3     5     1
10    3     6     1
11    4     27    1
12    4     28    1
13    4     29    1
14    5     30    1
15    5     31    1
16    5     32    1
17    6     7     1
18    6     8     am
19    7     33    1
20    7     34    1
21    7     35    1
22    8     9     2
23    8     10    am
24    10    21    1
25    10    11    1
26    11    12    1
27    11    36    1
28    11    37    1
29    12    13    1
30    12    38    1
31    12    39    1
32    13    14    1
33    13    40    1
34    13    41    1
35    14    15    1
36    14    16    1
37    14    20    1
38    16    17    1
39    16    42    1
40    16    43    1
41    17    18    ar
42    17    19    ar
43    20    21    1
44    20    44    1
45    20    45    1
46    21    46    1
47    21    47    1
@<TRIPOS>SUBSTRUCTURE
1   ZINC000069457321 1     RESIDUE    1   A     ZIN   1

@<TRIPOS>MOLECULE
ZINC000069457321
46    46    1     0     0
SMALL
USER_CHARGES
@<TRIPOS>ATOM
1      C1     -4.7547    1.9217    0.2279 C.3      1 ZINC000069457321   -0.1500
2      C2     -4.9929    0.4209    0.0498 C.3      1 ZINC000069457321   -0.1200
3      C3     -3.6554   -0.3192    0.1152 C.3      1 ZINC000069457321    0.1900
4      C4     -2.7373    0.1873   -0.9991 C.3      1 ZINC000069457321   -0.1600
5      C5     -2.9977   -0.0648    1.4730 C.3      1 ZINC000069457321   -0.1700
6      N6     -3.8835   -1.7562   -0.0554 N.am     1 ZINC000069457321   -0.6300
7      C7     -5.2438   -2.2639   -0.2504 C.3      1 ZINC000069457321    0.0200
8      C8     -2.8419   -2.6112   -0.0328 C.2      1 ZINC000069457321    0.7100
9      O9     -1.7394   -2.2177    0.2956 O.2      1 ZINC000069457321   -0.5900
10     N10    -3.0225   -3.9024   -0.3744 N.am     1 ZINC000069457321   -0.6100
11     C11    -1.8561   -4.8071   -0.3724 C.3      1 ZINC000069457321    0.1300
12     C12    -2.2119   -6.1763    0.2307 C.3      1 ZINC000069457321   -0.1200
13     C13    -3.1177   -5.9847    1.4270 C.3      1 ZINC000069457321    0.1000
14     N14    -4.5106   -6.0576    0.9889 N.3      1 ZINC000069457321   -0.5400
15     C15    -5.3512   -6.6954    2.0109 C.3      1 ZINC000069457321    0.0000
16     C16    -5.1156   -8.1838    1.9979 C.2      1 ZINC000069457321    0.4900
17     O17    -4.2588   -8.6591    1.2723 O.co2    1 ZINC000069457321   -0.6800
18     O18    -5.7819   -8.9128    2.7129 O.co2    1 ZINC000069457321   -0.7100
19     C19    -5.0907   -4.8492    0.5373 C.3      1 ZINC000069457321    0.0500
20     C20    -4.3551   -4.3510   -0.7237 C.3      1 ZINC000069457321    0.0500
21     H21    -5.7076    2.4489    0.1813 H        1 ZINC000069457321    0.0600
22     H22    -4.2861    2.1029    1.1952 H        1 ZINC000069457321    0.0600
23     H23    -4.1006    2.2824   -0.5659 H        1 ZINC000069457321    0.0600
24     H24    -5.6470    0.0601    0.8436 H        1 ZINC000069457321    0.0700
25     H25    -5.4615    0.2396   -0.9175 H        1 ZINC000069457321    0.0700
26     H26    -2.5676    1.2565   -0.8722 H        1 ZINC000069457321    0.0600
27     H27    -1.7844   -0.3399   -0.9524 H        1 ZINC000069457321    0.0700
28     H28    -3.2059    0.0061   -1.9664 H        1 ZINC000069457321    0.0500
29     H29    -3.6517   -0.4256    2.2668 H        1 ZINC000069457321    0.0500
30     H30    -2.0448   -0.5920    1.5196 H        1 ZINC000069457321    0.0900
31     H31    -2.8280    1.0044    1.5999 H        1 ZINC000069457321    0.0600
32     H32    -5.4501   -2.3498   -1.3172 H        1 ZINC000069457321    0.0600
33     H33    -5.3365   -3.2439    0.2177 H        1 ZINC000069457321    0.1300
34     H34    -5.9570   -1.5756    0.2033 H        1 ZINC000069457321    0.0700
35     H35    -1.5113   -4.9471   -1.3970 H        1 ZINC000069457321    0.0600
36     H36    -1.0555   -4.3560    0.2138 H        1 ZINC000069457321    0.0800
37     H37    -2.7231   -6.7810   -0.5183 H        1 ZINC000069457321    0.0900
38     H38    -1.2992   -6.6830    0.5442 H        1 ZINC000069457321    0.0700
39     H39    -2.9246   -6.7683    2.1597 H        1 ZINC000069457321    0.0700
40     H40    -2.9274   -5.0097    1.8758 H        1 ZINC000069457321    0.0200
41     H41    -5.0961   -6.2957    2.9924 H        1 ZINC000069457321    0.0300
42     H42    -6.4005   -6.4918    1.7972 H        1 ZINC000069457321    0.0600
43     H43    -6.1414   -5.0183    0.3016 H        1 ZINC000069457321    0.0800
44     H44    -5.0140   -4.0959    1.3213 H        1 ZINC000069457321    0.0200
45     H45    -4.9104   -3.5228   -1.1641 H        1 ZINC000069457321    0.1300
46     H46    -4.2832   -5.1637   -1.4466 H        1 ZINC000069457321    0.0800
@<TRIPOS>BOND
1     1     2     1
2     1     21    1
3     1     22    1
4     1     23    1
5     2     3     1
6     2     24    1
7     2     25    1
8     3     4     1
9     3     5     1
10    3     6     1
11    4     26    1
12    4     27    1
13    4     28    1
14    5     29    1
15    5     30    1
16    5     31    1
17    6     7     1
18    6     8     am
19    7     32    1
20    7     33    1
21    7     34    1
22    8     9     2
23    8     10    am
24    10    20    1
25    10    11    1
26    11    12    1
27    11    35    1
28    11    36    1
29    12    13    1
30    12    37    1
31    12    38    1
32    13    14    1
33    13    39    1
34    13    40    1
35    14    15    1
36    14    19    1
37    15    16    1
38    15    41    1
39    15    42    1
40    16    17    ar
41    16    18    ar
42    19    20    1
43    19    43    1
44    19    44    1
45    20    45    1
46    20    46    1
@<TRIPOS>SUBSTRUCTURE
1   ZINC000069457321 1     RESIDUE    1   A     ZIN   1
@<TRIPOS>MOLECULE
ZINC000070397735
31    32    1     0     0
SMALL
USER_CHARGES
@<TRIPOS>ATOM
1      N1      2.4190    3.9832    2.2037 N.1      1 ZINC000070397735   -0.3400
2      C2      1.7124    3.5294    1.4386 C.1      1 ZINC000070397735    0.2100
3      C3      0.8218    2.9575    0.4742 C.ar     1 ZINC000070397735    0.0400
4      C4     -0.4585    3.4918    0.2959 C.ar     1 ZINC000070397735    0.1300
5      F5     -0.8596    4.5505    1.0330 F        1 ZINC000070397735   -0.1200
6      C6     -1.3120    2.9331   -0.6376 C.ar     1 ZINC000070397735   -0.1000
7      C7     -0.9016    1.8501   -1.3923 C.ar     1 ZINC000070397735   -0.0800
8      C8      0.3643    1.3168   -1.2198 C.ar     1 ZINC000070397735   -0.0300
9      C9      1.2291    1.8666   -0.2974 C.ar     1 ZINC000070397735   -0.6200
10     S10     2.8395    1.1849   -0.0816 S.o2     1 ZINC000070397735    2.6800
11     O11     2.9227    0.0675   -0.9555 O.2      1 ZINC000070397735   -0.9300
12     O12     3.7471    2.2773   -0.1281 O.2      1 ZINC000070397735   -0.9300
13     N13     2.9136    0.5807    1.4585 N.am     1 ZINC000070397735   -1.1000
14     C14     2.0670   -0.5516    1.8426 C.3      1 ZINC000070397735    0.1500
15     H15     1.7692   -1.1122    0.9566 H        1 ZINC000070397735    0.1200
16     C16     0.8204   -0.0475    2.5909 C.3      1 ZINC000070397735   -0.1400
17     C17     0.1338   -1.2478    3.2723 C.3      1 ZINC000070397735   -0.5900
18     S18     1.4780   -2.4462    3.5929 S.o2     1 ZINC000070397735    2.3900
19     O19     1.7014   -2.5398    4.9931 O.2      1 ZINC000070397735   -0.9300
20     O20     1.2496   -3.6246    2.8323 O.2      1 ZINC000070397735   -0.9200
21     C21     2.8310   -1.4768    2.8245 C.3      1 ZINC000070397735   -0.6000
22     H22    -2.3012    3.3435   -0.7771 H        1 ZINC000070397735    0.1600
23     H23    -1.5721    1.4176   -2.1201 H        1 ZINC000070397735    0.1600
24     H24     0.6770    0.4701   -1.8128 H        1 ZINC000070397735    0.1700
25     H25     3.5176    0.9764    2.1062 H        1 ZINC000070397735    0.4300
26     H26     1.1157    0.6823    3.3448 H        1 ZINC000070397735    0.1000
27     H27     0.1317    0.4163    1.8847 H        1 ZINC000070397735    0.1000
28     H28    -0.3282   -0.9376    4.2095 H        1 ZINC000070397735    0.1500
29     H29    -0.6121   -1.6844    2.6080 H        1 ZINC000070397735    0.1400
30     H30     3.5180   -2.1303    2.2867 H        1 ZINC000070397735    0.1500
31     H31     3.3610   -0.8900    3.5748 H        1 ZINC000070397735    0.1500
@<TRIPOS>BOND
1     1     2     3
2     2     3     1
3     3     9     ar
4     3     4     ar
5     4     5     1
6     4     6     ar
7     6     7     ar
8     6     22    1
9     7     8     ar
10    7     23    1
11    8     9     ar
12    8     24    1
13    9     10    1
14    10    11    2
15    10    12    2
16    10    13    am
17    13    14    1
18    13    25    1
19    14    15    1
20    14    21    1
21    14    16    1
22    16    17    1
23    16    26    1
24    16    27    1
25    17    18    1
26    17    28    1
27    17    29    1
28    18    19    2
29    18    20    2
30    18    21    1
31    21    30    1
32    21    31    1
@<TRIPOS>SUBSTRUCTURE
1   ZINC000070397735 1     RESIDUE    1   A     ZIN   1
@<TRIPOS>MOLECULE
ZINC000070416814
36    38    1     0     0
SMALL
USER_CHARGES
@<TRIPOS>ATOM
1      O1      0.0021   -0.0041    0.0020 O.2      1 ZINC000070416814   -0.9500
2      S2     -0.0172    1.4168    0.0098 S.o2     1 ZINC000070416814    2.7300
3      O3      1.1617    2.2101    0.0028 O.2      1 ZINC000070416814   -0.9500
4      C4     -0.9567    1.9094   -1.3970 C.2      1 ZINC000070416814   -0.5600
5      C5     -0.4587    2.2587   -2.5985 C.2      1 ZINC000070416814    0.0700
6      N6     -1.5277    2.5665   -3.3961 N.pl3    1 ZINC000070416814   -0.5600
7      C7     -2.6426    2.3945   -2.6537 C.2      1 ZINC000070416814    0.1900
8      N8     -2.2937    1.9966   -1.4608 N.2      1 ZINC000070416814   -0.4200
9      N9     -0.8748    1.8654    1.3536 N.am     1 ZINC000070416814   -0.9900
10     C10    -0.6888    3.1899    1.9678 C.3      1 ZINC000070416814    0.1300
11     C11    -2.0650    3.8448    2.1049 C.3      1 ZINC000070416814    0.0400
12     N12    -2.9717    2.9568    2.8522 N.3      1 ZINC000070416814   -0.5200
13     C13    -4.2413    3.6615    3.0926 C.3      1 ZINC000070416814    0.0500
14     C14    -5.1671    2.8026    3.9529 C.3      1 ZINC000070416814   -0.1200
15     C15    -5.4429    1.4867    3.2178 C.3      1 ZINC000070416814   -0.1200
16     C16    -4.1107    0.7800    2.9650 C.3      1 ZINC000070416814   -0.1200
17     C17    -3.1846    1.6871    2.1477 C.3      1 ZINC000070416814    0.0700
18     H18    -3.6282    1.8760    1.1702 H        1 ZINC000070416814    0.0600
19     C19    -1.8511    0.9577    1.9692 C.3      1 ZINC000070416814    0.1300
20     H20     0.5839    2.2902   -2.8787 H        1 ZINC000070416814    0.1900
21     H21    -1.4912    2.8544   -4.3216 H        1 ZINC000070416814    0.4300
22     H22    -3.6554    2.5555   -2.9924 H        1 ZINC000070416814    0.2200
23     H23    -0.2338    3.0790    2.9521 H        1 ZINC000070416814    0.0900
24     H24    -0.0501    3.8040    1.3330 H        1 ZINC000070416814    0.0900
25     H25    -1.9643    4.7905    2.6375 H        1 ZINC000070416814    0.0900
26     H26    -2.4773    4.0316    1.1133 H        1 ZINC000070416814    0.0400
27     H27    -4.0408    4.6019    3.6058 H        1 ZINC000070416814    0.0700
28     H28    -4.7252    3.8695    2.1382 H        1 ZINC000070416814    0.0300
29     H29    -4.6876    2.5934    4.9092 H        1 ZINC000070416814    0.0700
30     H30    -6.1055    3.3313    4.1202 H        1 ZINC000070416814    0.0700
31     H31    -6.0830    0.8523    3.8309 H        1 ZINC000070416814    0.0700
32     H32    -5.9329    1.6947    2.2666 H        1 ZINC000070416814    0.0600
33     H33    -3.6384    0.5460    3.9191 H        1 ZINC000070416814    0.0700
34     H34    -4.2897   -0.1440    2.4152 H        1 ZINC000070416814    0.0700
35     H35    -1.9948    0.0882    1.3278 H        1 ZINC000070416814    0.0900
36     H36    -1.4792    0.6357    2.9419 H        1 ZINC000070416814    0.0800
@<TRIPOS>BOND
1     1     2     2
2     2     3     2
3     2     4     1
4     2     9     am
5     4     8     1
6     4     5     2
7     5     6     1
8     5     20    1
9     6     7     1
10    6     21    1
11    7     8     2
12    7     22    1
13    9     19    1
14    9     10    1
15    10    11    1
16    10    23    1
17    10    24    1
18    11    12    1
19    11    25    1
20    11    26    1
21    12    17    1
22    12    13    1
23    13    14    1
24    13    27    1
25    13    28    1
26    14    15    1
27    14    29    1
28    14    30    1
29    15    16    1
30    15    31    1
31    15    32    1
32    16    17    1
33    16    33    1
34    16    34    1
35    17    18    1
36    17    19    1
37    19    35    1
38    19    36    1
@<TRIPOS>SUBSTRUCTURE
1   ZINC000070416814 1     RESIDUE    1   A     ZIN   1

@<TRIPOS>MOLECULE
ZINC000070416814
37    39    1     0     0
SMALL
USER_CHARGES
@<TRIPOS>ATOM
1      O1      0.0021   -0.0041    0.0020 O.2      1 ZINC000070416814   -0.9300
2      S2     -0.0172    1.4168    0.0098 S.o2     1 ZINC000070416814    2.7300
3      O3      1.1617    2.2101    0.0028 O.2      1 ZINC000070416814   -0.9400
4      C4     -0.9567    1.9094   -1.3970 C.2      1 ZINC000070416814   -0.5700
5      C5     -0.4587    2.2587   -2.5985 C.2      1 ZINC000070416814    0.0900
6      N6     -1.5277    2.5665   -3.3961 N.pl3    1 ZINC000070416814   -0.5500
7      C7     -2.6426    2.3945   -2.6537 C.2      1 ZINC000070416814    0.2000
8      N8     -2.2937    1.9966   -1.4608 N.2      1 ZINC000070416814   -0.4400
9      N9     -0.8748    1.8654    1.3536 N.am     1 ZINC000070416814   -1.0000
10     C10    -0.6893    3.1899    1.9684 C.3      1 ZINC000070416814    0.1000
11     C11    -2.0681    3.8350    2.1253 C.3      1 ZINC000070416814   -0.0200
12     N12    -2.9540    2.9472    2.8954 N.4      1 ZINC000070416814   -0.3800
13     H13    -2.5335    2.7454    3.7901 H        1 ZINC000070416814    0.4200
14     C14    -4.2280    3.6529    3.0996 C.3      1 ZINC000070416814   -0.0100
15     C15    -5.1740    2.8024    3.9464 C.3      1 ZINC000070416814   -0.1500
16     C16    -5.4470    1.4869    3.2093 C.3      1 ZINC000070416814   -0.1400
17     C17    -4.1134    0.7801    2.9623 C.3      1 ZINC000070416814   -0.1400
18     C18    -3.1766    1.6946    2.1655 C.3      1 ZINC000070416814    0.0200
19     H19    -3.6172    1.9096    1.1920 H        1 ZINC000070416814    0.1500
20     C20    -1.8515    0.9580    1.9699 C.3      1 ZINC000070416814    0.1100
21     H21     0.5839    2.2902   -2.8787 H        1 ZINC000070416814    0.2000
22     H22    -1.4912    2.8544   -4.3216 H        1 ZINC000070416814    0.4400
23     H23    -3.6554    2.5555   -2.9924 H        1 ZINC000070416814    0.2200
24     H24    -0.2205    3.0799    2.9463 H        1 ZINC000070416814    0.1000
25     H25    -0.0633    3.8098    1.3265 H        1 ZINC000070416814    0.1300
26     H26    -1.9653    4.7858    2.6483 H        1 ZINC000070416814    0.1400
27     H27    -2.4996    4.0106    1.1399 H        1 ZINC000070416814    0.1300
28     H28    -4.0395    4.5983    3.6083 H        1 ZINC000070416814    0.1300
29     H29    -4.6896    3.8519    2.1324 H        1 ZINC000070416814    0.1300
30     H30    -4.7117    2.5918    4.9108 H        1 ZINC000070416814    0.0900
31     H31    -6.1111    3.3382    4.0972 H        1 ZINC000070416814    0.1100
32     H32    -6.0900    0.8524    3.8193 H        1 ZINC000070416814    0.1000
33     H33    -5.9327    1.6956    2.2560 H        1 ZINC000070416814    0.0800
34     H34    -3.6511    0.5349    3.9184 H        1 ZINC000070416814    0.0900
35     H35    -4.2885   -0.1372    2.4001 H        1 ZINC000070416814    0.1100
36     H36    -2.0064    0.0957    1.3214 H        1 ZINC000070416814    0.1300
37     H37    -1.4738    0.6247    2.9365 H        1 ZINC000070416814    0.1000
@<TRIPOS>BOND
1     1     2     2
2     2     3     2
3     2     4     1
4     2     9     am
5     4     8     1
6     4     5     2
7     5     6     1
8     5     21    1
9     6     7     1
10    6     22    1
11    7     8     2
12    7     23    1
13    9     20    1
14    9     10    1
15    10    11    1
16    10    24    1
17    10    25    1
18    11    12    1
19    11    26    1
20    11    27    1
21    12    13    1
22    12    18    1
23    12    14    1
24    14    15    1
25    14    28    1
26    14    29    1
27    15    16    1
28    15    30    1
29    15    31    1
30    16    17    1
31    16    32    1
32    16    33    1
33    17    18    1
34    17    34    1
35    17    35    1
36    18    19    1
37    18    20    1
38    20    36    1
39    20    37    1
@<TRIPOS>SUBSTRUCTURE
1   ZINC000070416814 1     RESIDUE    1   A     ZIN   1

@<TRIPOS>MOLECULE
ZINC000070416814
37    39    1     0     0
SMALL
USER_CHARGES
@<TRIPOS>ATOM
1      O1      0.0021   -0.0041    0.0020 O.2      1 ZINC000070416814   -0.9300
2      S2     -0.0172    1.4168    0.0098 S.o2     1 ZINC000070416814    2.7300
3      O3      1.1617    2.2101    0.0028 O.2      1 ZINC000070416814   -0.9400
4      C4     -0.9567    1.9094   -1.3970 C.2      1 ZINC000070416814   -0.5700
5      C5     -0.4587    2.2587   -2.5985 C.2      1 ZINC000070416814    0.0800
6      N6     -1.5277    2.5665   -3.3961 N.pl3    1 ZINC000070416814   -0.5500
7      C7     -2.6426    2.3945   -2.6537 C.2      1 ZINC000070416814    0.2000
8      N8     -2.2937    1.9966   -1.4608 N.2      1 ZINC000070416814   -0.4300
9      N9     -0.8748    1.8654    1.3536 N.am     1 ZINC000070416814   -1.0000
10     C10    -0.6859    3.1903    1.9646 C.3      1 ZINC000070416814    0.1000
11     C11    -0.4440    3.0016    3.4657 C.3      1 ZINC000070416814   -0.0300
12     N12    -1.5471    2.2230    4.0450 N.4      1 ZINC000070416814   -0.3800
13     H13    -2.4236    2.6793    3.8413 H        1 ZINC000070416814    0.4300
14     C14    -1.3672    2.1362    5.5008 C.3      1 ZINC000070416814   -0.0100
15     C15     0.0007    1.5239    5.8101 C.3      1 ZINC000070416814   -0.1500
16     C16     0.0784    0.1213    5.2008 C.3      1 ZINC000070416814   -0.1400
17     C17    -0.1944    0.2116    3.6962 C.3      1 ZINC000070416814   -0.1500
18     C18    -1.5559    0.8702    3.4738 C.3      1 ZINC000070416814    0.0200
19     H19    -2.3298    0.2763    3.9600 H        1 ZINC000070416814    0.1500
20     C20    -1.8519    0.9531    1.9673 C.3      1 ZINC000070416814    0.1000
21     H21     0.5839    2.2902   -2.8787 H        1 ZINC000070416814    0.2000
22     H22    -1.4912    2.8544   -4.3216 H        1 ZINC000070416814    0.4300
23     H23    -3.6554    2.5555   -2.9924 H        1 ZINC000070416814    0.2200
24     H24     0.1759    3.6823    1.5136 H        1 ZINC000070416814    0.1400
25     H25    -1.5792    3.7955    1.8107 H        1 ZINC000070416814    0.1000
26     H26     0.4954    2.4702    3.6184 H        1 ZINC000070416814    0.1400
27     H27    -0.3931    3.9763    3.9509 H        1 ZINC000070416814    0.1400
28     H28    -1.4247    3.1347    5.9342 H        1 ZINC000070416814    0.1300
29     H29    -2.1506    1.5095    5.9270 H        1 ZINC000070416814    0.1300
30     H30     0.7843    2.1498    5.3831 H        1 ZINC000070416814    0.0900
31     H31     0.1344    1.4592    6.8899 H        1 ZINC000070416814    0.1100
32     H32     1.0728   -0.2933    5.3665 H        1 ZINC000070416814    0.1000
33     H33    -0.6678   -0.5210    5.6685 H        1 ZINC000070416814    0.0800
34     H34     0.5824    0.8100    3.2203 H        1 ZINC000070416814    0.0900
35     H35    -0.1992   -0.7899    3.2661 H        1 ZINC000070416814    0.1200
36     H36    -2.8622    1.3322    1.8131 H        1 ZINC000070416814    0.1000
37     H37    -1.7574   -0.0367    1.5207 H        1 ZINC000070416814    0.1400
@<TRIPOS>BOND
1     1     2     2
2     2     3     2
3     2     4     1
4     2     9     am
5     4     8     1
6     4     5     2
7     5     6     1
8     5     21    1
9     6     7     1
10    6     22    1
11    7     8     2
12    7     23    1
13    9     20    1
14    9     10    1
15    10    11    1
16    10    24    1
17    10    25    1
18    11    12    1
19    11    26    1
20    11    27    1
21    12    13    1
22    12    18    1
23    12    14    1
24    14    15    1
25    14    28    1
26    14    29    1
27    15    16    1
28    15    30    1
29    15    31    1
30    16    17    1
31    16    32    1
32    16    33    1
33    17    18    1
34    17    34    1
35    17    35    1
36    18    19    1
37    18    20    1
38    20    36    1
39    20    37    1
@<TRIPOS>SUBSTRUCTURE
1   ZINC000070416814 1     RESIDUE    1   A     ZIN   1
@<TRIPOS>MOLECULE
ZINC000091295702
43    44    1     0     0
SMALL
USER_CHARGES
@<TRIPOS>ATOM
1      C1     -0.3881    1.5134    0.1204 C.3      1 ZINC000091295702   -0.1500
2      C2     -0.3773   -0.0165    0.1219 C.3      1 ZINC000091295702   -0.1100
3      H3     -1.3792   -0.3872    0.3386 H        1 ZINC000091295702    0.0700
4      C4      0.0701   -0.5256   -1.2503 C.3      1 ZINC000091295702   -0.1100
5      C5      0.0497   -2.0558   -1.2601 C.3      1 ZINC000091295702   -0.1400
6      C6      1.0290   -2.5823   -0.2063 C.3      1 ZINC000091295702    0.1100
7      N7      0.6936   -1.9827    1.0924 N.am     1 ZINC000091295702   -0.6200
8      C8      0.4789   -2.7596    2.1726 C.2      1 ZINC000091295702    0.5100
9      O9      0.2027   -2.2525    3.2391 O.2      1 ZINC000091295702   -0.5100
10     C10     0.5820   -4.2585    2.0551 C.3      1 ZINC000091295702    0.0400
11     N11     0.1648   -4.8786    3.3197 N.3      1 ZINC000091295702   -0.5200
12     C12     0.4736   -6.3159    3.3288 C.3      1 ZINC000091295702    0.0200
13     C13     0.0782   -6.9089    4.6838 C.3      1 ZINC000091295702    0.0600
14     O14    -1.3078   -6.6514    4.9249 O.3      1 ZINC000091295702   -0.3600
15     C15    -1.6438   -5.2612    4.9236 C.3      1 ZINC000091295702    0.1200
16     H16    -1.0960   -4.7536    5.7175 H        1 ZINC000091295702    0.0700
17     C17    -3.1474   -5.0989    5.1559 C.3      1 ZINC000091295702   -0.1800
18     C18    -3.4986   -5.5922    6.5359 C.2      1 ZINC000091295702    0.5000
19     O19    -2.6272   -6.0328    7.2659 O.co2    1 ZINC000091295702   -0.6800
20     O20    -4.6542   -5.5507    6.9223 O.co2    1 ZINC000091295702   -0.7100
21     C21    -1.2658   -4.6516    3.5711 C.3      1 ZINC000091295702    0.0200
22     C22     0.5966   -0.5199    1.1919 C.3      1 ZINC000091295702    0.1200
23     H23     0.6140    1.8836   -0.0963 H        1 ZINC000091295702    0.0600
24     H24    -1.0803    1.8711   -0.6419 H        1 ZINC000091295702    0.0600
25     H25    -0.7056    1.8755    1.0982 H        1 ZINC000091295702    0.0600
26     H26    -0.6077   -0.1485   -2.0161 H        1 ZINC000091295702    0.0700
27     H27     1.0813   -0.1745   -1.4558 H        1 ZINC000091295702    0.0600
28     H28    -0.9560   -2.4077   -1.0302 H        1 ZINC000091295702    0.0700
29     H29     0.3459   -2.4173   -2.2448 H        1 ZINC000091295702    0.0800
30     H30     0.9463   -3.6671   -0.1402 H        1 ZINC000091295702    0.0800
31     H31     2.0467   -2.3076   -0.4837 H        1 ZINC000091295702    0.0700
32     H32    -0.0653   -4.6052    1.2495 H        1 ZINC000091295702    0.0600
33     H33     1.6134   -4.5358    1.8373 H        1 ZINC000091295702    0.1000
34     H34    -0.0858   -6.8134    2.5366 H        1 ZINC000091295702    0.0400
35     H35     1.5418   -6.4597    3.1664 H        1 ZINC000091295702    0.0800
36     H36     0.2523   -7.9848    4.6750 H        1 ZINC000091295702    0.0900
37     H37     0.6761   -6.4491    5.4707 H        1 ZINC000091295702    0.0600
38     H38    -3.4172   -4.0466    5.0666 H        1 ZINC000091295702    0.0700
39     H39    -3.6945   -5.6787    4.4126 H        1 ZINC000091295702    0.0600
40     H40    -1.4674   -3.5805    3.5855 H        1 ZINC000091295702    0.0900
41     H41    -1.8531   -5.1225    2.7827 H        1 ZINC000091295702    0.0300
42     H42     1.5789   -0.0766    1.0285 H        1 ZINC000091295702    0.0600
43     H43     0.2290   -0.2445    2.1804 H        1 ZINC000091295702    0.0900
@<TRIPOS>BOND
1     1     2     1
2     1     23    1
3     1     24    1
4     1     25    1
5     2     3     1
6     2     22    1
7     2     4     1
8     4     5     1
9     4     26    1
10    4     27    1
11    5     6     1
12    5     28    1
13    5     29    1
14    6     7     1
15    6     30    1
16    6     31    1
17    7     8     am
18    7     22    1
19    8     9     2
20    8     10    1
21    10    11    1
22    10    32    1
23    10    33    1
24    11    21    1
25    11    12    1
26    12    13    1
27    12    34    1
28    12    35    1
29    13    14    1
30    13    36    1
31    13    37    1
32    14    15    1
33    15    16    1
34    15    17    1
35    15    21    1
36    17    18    1
37    17    38    1
38    17    39    1
39    18    19    ar
40    18    20    ar
41    21    40    1
42    21    41    1
43    22    42    1
44    22    43    1
@<TRIPOS>SUBSTRUCTURE
1   ZINC000091295702 1     RESIDUE    1   A     ZIN   1
@<TRIPOS>MOLECULE
ZINC000004953630
32    33    1     0     0
SMALL
USER_CHARGES
@<TRIPOS>ATOM
1      C1     -0.0057    1.3729    0.8367 C.3      1 ZINC000004953630    0.0800
2      N2     -0.0636   -0.0902    0.8840 N.am     1 ZINC000004953630   -0.5700
3      C3     -1.1559   -0.7220    0.4069 C.2      1 ZINC000004953630    0.5800
4      O4     -2.0874   -0.0939   -0.0593 O.2      1 ZINC000004953630   -0.4900
5      C5     -1.1892   -2.1967    0.4657 C.2      1 ZINC000004953630   -0.3400
6      C6     -2.2734   -2.9134   -0.0039 C.2      1 ZINC000004953630    0.2100
7      C7     -2.1918   -4.3683   -0.1230 C.ar     1 ZINC000004953630   -0.2600
8      C8     -1.0841   -4.9655   -0.7430 C.ar     1 ZINC000004953630    0.1000
9      C9     -1.0153   -6.3357   -0.8510 C.ar     1 ZINC000004953630   -0.1700
10     N10     0.1541   -6.9644   -1.5054 N.pl3    1 ZINC000004953630    0.0700
11     O11     1.0518   -6.2694   -1.9465 O.2      1 ZINC000004953630   -0.2100
12     O12     0.2185   -8.1768   -1.6029 O.2      1 ZINC000004953630   -0.2100
13     C13    -2.0349   -7.1307   -0.3498 C.ar     1 ZINC000004953630    0.0300
14     C14    -3.1334   -6.5588    0.2634 C.ar     1 ZINC000004953630   -0.2100
15     Br15   -4.5149   -7.6582    0.9406 Br       1 ZINC000004953630   -0.0500
16     C16    -3.2213   -5.1805    0.3887 C.ar     1 ZINC000004953630    0.3500
17     O17    -4.2985   -4.6178    0.9902 O.3      1 ZINC000004953630   -0.6200
18     C18    -0.0125   -2.8717    1.0481 C.2      1 ZINC000004953630    0.5700
19     O19     0.0349   -4.0844    1.1310 O.2      1 ZINC000004953630   -0.4700
20     N20     1.0088   -2.1067    1.4855 N.am     1 ZINC000004953630   -0.5600
21     C21     2.1881   -2.7523    2.0676 C.3      1 ZINC000004953630    0.0800
22     C22     0.9721   -0.7699    1.3953 C.2      1 ZINC000004953630    0.7100
23     O23     1.9259   -0.1396    1.8078 O.2      1 ZINC000004953630   -0.5400
24     H24     0.9414    1.7128    1.2556 H        1 ZINC000004953630    0.1000
25     H25    -0.0859    1.7064   -0.1980 H        1 ZINC000004953630    0.0800
26     H26    -0.8296    1.7881    1.4171 H        1 ZINC000004953630    0.0800
27     H27    -3.1810   -2.3988   -0.2828 H        1 ZINC000004953630    0.1500
28     H28    -0.2871   -4.3512   -1.1351 H        1 ZINC000004953630    0.1300
29     H29    -1.9702   -8.2050   -0.4398 H        1 ZINC000004953630    0.1400
30     H30     2.9142   -2.9593    1.2815 H        1 ZINC000004953630    0.0700
31     H31     2.6350   -2.0911    2.8100 H        1 ZINC000004953630    0.0900
32     H32     1.8924   -3.6868    2.5444 H        1 ZINC000004953630    0.0900
@<TRIPOS>BOND
1     1     2     1
2     1     24    1
3     1     25    1
4     1     26    1
5     2     22    am
6     2     3     am
7     3     4     2
8     3     5     1
9     5     6     2
10    5     18    1
11    6     7     1
12    6     27    1
13    7     16    ar
14    7     8     ar
15    8     9     ar
16    8     28    1
17    9     10    1
18    9     13    ar
19    10    11    2
20    10    12    2
21    13    14    ar
22    13    29    1
23    14    15    1
24    14    16    ar
25    16    17    1
26    18    19    2
27    18    20    am
28    20    21    1
29    20    22    am
30    21    30    1
31    21    31    1
32    21    32    1
33    22    23    2
@<TRIPOS>SUBSTRUCTURE
1   ZINC000004953630 1     RESIDUE    1   A     ZIN   1
@<TRIPOS>MOLECULE
ZINC000002565807
41    44    1     0     0
SMALL
USER_CHARGES
@<TRIPOS>ATOM
1      O1      1.3531    3.8785   -1.6239 O.2      1 ZINC000002565807   -0.4500
2      C2      0.6466    3.0926   -1.0263 C.2      1 ZINC000002565807    0.5400
3      C3     -0.8225    3.1892   -0.8780 C.2      1 ZINC000002565807   -0.1400
4      C4     -1.2099    2.1276   -0.1515 C.2      1 ZINC000002565807   -0.1300
5      C5      0.0127    1.3555    0.1626 C.2      1 ZINC000002565807    0.5400
6      O6      0.0573    0.3273    0.8064 O.2      1 ZINC000002565807   -0.4400
7      N7      1.0657    1.9832   -0.3914 N.am     1 ZINC000002565807   -0.5300
8      C8      2.3990    1.5516   -0.3112 C.ar     1 ZINC000002565807    0.0800
9      C9      2.7113    0.3877    0.3780 C.ar     1 ZINC000002565807   -0.1000
10     C10     4.0224   -0.0374    0.4568 C.ar     1 ZINC000002565807   -0.1400
11     C11     5.0292    0.6996   -0.1537 C.ar     1 ZINC000002565807    0.1900
12     N12     6.3579    0.2689   -0.0745 N.pl3    1 ZINC000002565807   -0.6900
13     C13     6.6456   -1.0941    0.0202 C.ar     1 ZINC000002565807    0.1800
14     C14     5.7893   -2.0263   -0.5783 C.ar     1 ZINC000002565807   -0.1600
15     C15     6.0449   -3.3591   -0.5018 C.ar     1 ZINC000002565807   -0.0600
16     C16     7.1828   -3.8164    0.1853 C.ar     1 ZINC000002565807   -0.1000
17     C17     7.4721   -5.1884    0.2798 C.ar     1 ZINC000002565807    0.0000
18     C18     8.5823   -5.5985    0.9520 C.ar     1 ZINC000002565807   -0.6600
19     S19     8.9404   -7.3199    1.0669 S.o2     1 ZINC000002565807    2.7000
20     O20     9.6470   -7.5184    2.3228 O.co2    1 ZINC000002565807   -1.0600
21     O21     7.6636   -8.0165    1.0428 O.co2    1 ZINC000002565807   -1.0600
22     O22     9.7664   -7.6541   -0.0830 O.co2    1 ZINC000002565807   -1.0600
23     C23     9.4404   -4.6776    1.5505 C.ar     1 ZINC000002565807   -0.0200
24     C24     9.1929   -3.3413    1.4800 C.ar     1 ZINC000002565807   -0.1500
25     C25     8.0557   -2.8796    0.7941 C.ar     1 ZINC000002565807    0.0100
26     C26     7.7725   -1.5080    0.6970 C.ar     1 ZINC000002565807   -0.1700
27     C27     4.7162    1.8641   -0.8432 C.ar     1 ZINC000002565807   -0.1500
28     C28     3.4041    2.2856   -0.9260 C.ar     1 ZINC000002565807   -0.1000
29     H29    -1.4604    3.9642   -1.2766 H        1 ZINC000002565807    0.1900
30     H30    -2.2192    1.8848    0.1465 H        1 ZINC000002565807    0.1900
31     H31     1.9285   -0.1851    0.8530 H        1 ZINC000002565807    0.1500
32     H32     4.2653   -0.9427    0.9933 H        1 ZINC000002565807    0.1400
33     H33     7.0794    0.9173   -0.0855 H        1 ZINC000002565807    0.4100
34     H34     4.9133   -1.6816   -1.1077 H        1 ZINC000002565807    0.1200
35     H35     5.3744   -4.0659   -0.9681 H        1 ZINC000002565807    0.1300
36     H36     6.8165   -5.9139   -0.1785 H        1 ZINC000002565807    0.1400
37     H37    10.3143   -5.0298    2.0783 H        1 ZINC000002565807    0.1300
38     H38     9.8663   -2.6391    1.9489 H        1 ZINC000002565807    0.1300
39     H39     8.4307   -0.7829    1.1523 H        1 ZINC000002565807    0.1300
40     H40     5.4987    2.4377   -1.3178 H        1 ZINC000002565807    0.1300
41     H41     3.1607    3.1910   -1.4621 H        1 ZINC000002565807    0.1500
@<TRIPOS>BOND
1     1     2     2
2     2     7     am
3     2     3     1
4     3     4     2
5     3     29    1
6     4     5     1
7     4     30    1
8     5     6     2
9     5     7     am
10    7     8     1
11    8     28    ar
12    8     9     ar
13    9     10    ar
14    9     31    1
15    10    11    ar
16    10    32    1
17    11    12    1
18    11    27    ar
19    12    13    1
20    12    33    1
21    13    26    ar
22    13    14    ar
23    14    15    ar
24    14    34    1
25    15    16    ar
26    15    35    1
27    16    25    ar
28    16    17    ar
29    17    18    ar
30    17    36    1
31    18    19    1
32    18    23    ar
33    19    20    ar
34    19    21    ar
35    19    22    ar
36    23    24    ar
37    23    37    1
38    24    25    ar
39    24    38    1
40    25    26    ar
41    26    39    1
42    27    28    ar
43    27    40    1
44    28    41    1
@<TRIPOS>SUBSTRUCTURE
1   ZINC000002565807 1     RESIDUE    1   A     ZIN   1
@<TRIPOS>MOLECULE
ZINC000004945007
  42   44    0    0    0
SMALL
USER_CHARGES
NO_NAME
@<TRIPOS>ATOM
    1 C1       -0.0173     1.4248     0.0099 C.3    1 <0>       0.0200
    2 O2        0.0021    -0.0041     0.0020 O.3    1 <0>      -0.2800
    3 C3        0.6264    -0.6189     1.0424 C.ar   1 <0>       0.1100
    4 C4        0.6851    -2.0138     1.0909 C.ar   1 <0>       0.2800
    5 N5        0.1016    -2.7743     0.0686 N.pl3  1 <0>      -1.0800
    6 S6        0.1704    -4.4280     0.1246 S.o2   1 <0>       2.5200
    7 C7       -0.6975    -4.9680    -1.3740 C.3    1 <0>      -0.6400
    8 O8        1.5570    -4.7244     0.0320 O.2    1 <0>      -1.0200
    9 O9       -0.5762    -4.7707     1.2840 O.2    1 <0>      -1.0200
   10 C10       1.3180    -2.6452     2.1450 C.ar   1 <0>      -0.2200
   11 C11       1.8980    -1.8874     3.1603 C.ar   1 <0>       0.0000
   12 C12       1.8385    -0.4830     3.1113 C.ar   1 <0>       0.0100
   13 C13       1.2033     0.1393     2.0417 C.ar   1 <0>      -0.1800
   14 N14       2.4864     0.0081     4.2326 N.am   1 <0>      -0.7900
   15 S15       2.6589     1.6152     4.5926 S.o2   1 <0>       2.5900
   16 C16       1.1921     2.0176     5.5811 C.3    1 <0>      -0.6600
   17 O17       3.8310     1.6710     5.3940 O.2    1 <0>      -0.9400
   18 O18       2.6030     2.2651     3.3301 O.2    1 <0>      -0.9200
   19 C19       2.9541    -0.9959     4.9856 C.2    1 <0>       0.1200
   20 C20       2.6269    -2.2056     4.3909 C.2    1 <0>      -0.2300
   21 C21       2.9764    -3.4547     4.9572 C.2    1 <0>       0.4100
   22 O22       2.7059    -4.4972     4.3968 O.2    1 <0>      -0.4600
   23 C23       3.7002    -3.4441     6.2865 C.3    1 <0>      -0.1600
   24 C24       4.5793    -2.1982     6.3939 C.3    1 <0>      -0.1100
   25 C25       3.7275    -0.9278     6.2820 C.3    1 <0>      -0.0800
   26 H26       1.0053     1.8021     0.0021 H      1 <0>       0.0500
   27 H27      -0.5445     1.7859    -0.8732 H      1 <0>       0.0900
   28 H28      -0.5275     1.7763     0.9067 H      1 <0>       0.0400
   29 H29      -0.1893    -4.5691    -2.2519 H      1 <0>       0.1200
   30 H30      -0.7006    -6.0570    -1.4196 H      1 <0>       0.1000
   31 H31      -1.7241    -4.6024    -1.3511 H      1 <0>       0.1200
   32 H32       1.3626    -3.7236     2.1818 H      1 <0>       0.1200
   33 H33       1.1541     1.2172     1.9971 H      1 <0>       0.1400
   34 H34       1.1777     1.3989     6.4784 H      1 <0>       0.1300
   35 H35       1.2230     3.0694     5.8656 H      1 <0>       0.1400
   36 H36       0.2943     1.8264     4.9935 H      1 <0>       0.1400
   37 H37       2.9700    -3.4424     7.0958 H      1 <0>       0.1000
   38 H38       4.3236    -4.3346     6.3660 H      1 <0>       0.0900
   39 H39       5.0937    -2.2028     7.3548 H      1 <0>       0.0800
   40 H40       5.3170    -2.2084     5.5916 H      1 <0>       0.0700
   41 H41       4.3738    -0.0500     6.2797 H      1 <0>       0.1200
   42 H42       3.0347    -0.8737     7.1218 H      1 <0>       0.0900
@<TRIPOS>BOND
   1    1    2 1
   2    1   26 1
   3    1   27 1
   4    1   28 1
   5    2    3 1
   6    3   13 ar
   7    3    4 ar
   8    4    5 1
   9    4   10 ar
  10    5    6 1
  11    6    7 1
  12    6    8 2
  13    6    9 2
  14    7   29 1
  15    7   30 1
  16    7   31 1
  17   10   11 ar
  18   10   32 1
  19   11   20 1
  20   11   12 ar
  21   12   13 ar
  22   12   14 1
  23   13   33 1
  24   14   15 am
  25   14   19 1
  26   15   16 1
  27   15   17 2
  28   15   18 2
  29   16   34 1
  30   16   35 1
  31   16   36 1
  32   19   25 1
  33   19   20 2
  34   20   21 1
  35   21   22 2
  36   21   23 1
  37   23   24 1
  38   23   37 1
  39   23   38 1
  40   24   25 1
  41   24   39 1
  42   24   40 1
  43   25   41 1
  44   25   42 1

@<TRIPOS>MOLECULE
ZINC000004945007
  43   45    0    0    0
SMALL
USER_CHARGES
NO_NAME
@<TRIPOS>ATOM
    1 C1        0.0586     1.3886     0.4625 C.3    1 <0>       0.0200
    2 O2        0.0489    -0.0310     0.2989 O.3    1 <0>      -0.3100
    3 C3        0.7454    -0.5359    -0.7548 C.ar   1 <0>       0.1400
    4 C4        0.7709    -1.9154    -0.9734 C.ar   1 <0>       0.1300
    5 N5        0.0795    -2.7737    -0.1078 N.am   1 <0>      -1.0500
    6 S6        0.7054    -4.2631     0.2558 S.o2   1 <0>       2.6000
    7 C7        2.3081    -3.9048     1.0263 C.3    1 <0>      -0.6700
    8 O8       -0.1988    -4.7992     1.2120 O.2    1 <0>      -0.9500
    9 O9        0.8880    -4.8848    -1.0089 O.2    1 <0>      -0.9400
   10 C10       1.4764    -2.4353    -2.0422 C.ar   1 <0>      -0.1000
   11 C11       2.1630    -1.5805    -2.9021 C.ar   1 <0>      -0.0400
   12 C12       2.1372    -0.1916    -2.6815 C.ar   1 <0>       0.1000
   13 C13       1.4185     0.3183    -1.6053 C.ar   1 <0>      -0.1900
   14 N14       2.8936     0.4093    -3.6739 N.am   1 <0>      -0.8000
   15 S15       3.1455     2.0404    -3.8090 S.o2   1 <0>       2.5800
   16 C16       4.6459     2.3487    -2.8372 C.3    1 <0>      -0.6600
   17 O17       3.3974     2.2427    -5.1927 O.2    1 <0>      -0.9200
   18 O18       2.0138     2.6233    -3.1774 O.2    1 <0>      -0.9200
   19 C19       3.3934    -0.5105    -4.5093 C.2    1 <0>       0.1500
   20 C20       2.9890    -1.7718    -4.0970 C.2    1 <0>      -0.2200
   21 C21       3.3677    -2.9552    -4.7748 C.2    1 <0>       0.4100
   22 O22       2.9709    -4.0431    -4.4103 O.2    1 <0>      -0.4500
   23 C23       4.2848    -2.8154    -5.9708 C.3    1 <0>      -0.1700
   24 C24       4.0185    -1.4889    -6.6823 C.3    1 <0>      -0.1100
   25 C25       4.2600    -0.3105    -5.7310 C.3    1 <0>      -0.0900
   26 H26       1.0843     1.7317     0.5980 H      1 <0>       0.0600
   27 H27      -0.3681     1.8593    -0.4232 H      1 <0>       0.0600
   28 H28      -0.5330     1.6575     1.3376 H      1 <0>       0.1100
   29 H29      -0.7656    -2.4953     0.2783 H      1 <0>       0.4300
   30 H30       2.1546    -3.2988     1.9192 H      1 <0>       0.1300
   31 H31       2.7962    -4.8398     1.3011 H      1 <0>       0.1400
   32 H32       2.9365    -3.3604     0.3214 H      1 <0>       0.1300
   33 H33       1.4959    -3.5020    -2.2103 H      1 <0>       0.1800
   34 H34       1.3938     1.3837    -1.4299 H      1 <0>       0.1600
   35 H35       5.4729     1.7734    -3.2533 H      1 <0>       0.1400
   36 H36       4.8888     3.4108    -2.8709 H      1 <0>       0.1500
   37 H37       4.4775     2.0472    -1.8033 H      1 <0>       0.1400
   38 H38       5.3219    -2.8448    -5.6367 H      1 <0>       0.1000
   39 H39       4.1058    -3.6389    -6.6620 H      1 <0>       0.1000
   40 H40       4.6851    -1.4009    -7.5403 H      1 <0>       0.0900
   41 H41       2.9847    -1.4669    -7.0271 H      1 <0>       0.0800
   42 H42       3.9902     0.6229    -6.2250 H      1 <0>       0.1300
   43 H43       5.3094    -0.2829    -5.4377 H      1 <0>       0.1000
@<TRIPOS>BOND
   1    1    2 1
   2    1   26 1
   3    1   27 1
   4    1   28 1
   5    2    3 1
   6    3   13 ar
   7    3    4 ar
   8    4    5 1
   9    4   10 ar
  10    5    6 am
  11    5   29 1
  12    6    7 1
  13    6    8 2
  14    6    9 2
  15    7   30 1
  16    7   31 1
  17    7   32 1
  18   10   11 ar
  19   10   33 1
  20   11   20 1
  21   11   12 ar
  22   12   13 ar
  23   12   14 1
  24   13   34 1
  25   14   15 am
  26   14   19 1
  27   15   16 1
  28   15   17 2
  29   15   18 2
  30   16   35 1
  31   16   36 1
  32   16   37 1
  33   19   25 1
  34   19   20 2
  35   20   21 1
  36   21   22 2
  37   21   23 1
  38   23   24 1
  39   23   38 1
  40   23   39 1
  41   24   25 1
  42   24   40 1
  43   24   41 1
  44   25   42 1
  45   25   43 1
@<TRIPOS>MOLECULE
ZINC000004005942
35    37    1     0     0
SMALL
USER_CHARGES
@<TRIPOS>ATOM
1      O1      0.0021   -0.0041    0.0020 O.2      1 ZINC000004005942   -0.5200
2      C2     -0.0144    1.2143    0.0087 C.2      1 ZINC000004005942    0.5300
3      C3     -1.1654    2.0270    0.0302 C.2      1 ZINC000004005942   -0.2900
4      C4     -0.7618    3.3288    0.0316 C.2      1 ZINC000004005942    0.2000
5      C5     -1.6461    4.5119    0.0520 C.ar     1 ZINC000004005942    0.0200
6      C6     -1.0990    5.7966    0.0457 C.ar     1 ZINC000004005942   -0.1100
7      C7     -1.9306    6.8970    0.0644 C.ar     1 ZINC000004005942   -0.0500
8      C8     -3.3040    6.7299    0.0893 C.ar     1 ZINC000004005942   -0.0400
9      N9     -4.1901    7.9154    0.1093 N.pl3    1 ZINC000004005942    0.0300
10     O10    -3.7100    9.0348    0.1037 O.2      1 ZINC000004005942   -0.1600
11     O11    -5.3994    7.7716    0.1312 O.2      1 ZINC000004005942   -0.1500
12     C12    -3.8528    5.4597    0.0952 C.ar     1 ZINC000004005942   -0.0500
13     C13    -3.0330    4.3506    0.0718 C.ar     1 ZINC000004005942   -0.0800
14     N14     0.6138    3.3477    0.0114 N.pl3    1 ZINC000004005942   -0.4800
15     N15     1.0650    2.0213    0.0027 N.am     1 ZINC000004005942   -0.3500
16     C16     2.4011    1.6074   -0.0168 C.ar     1 ZINC000004005942    0.1100
17     C17     2.8741    0.7370    0.9559 C.ar     1 ZINC000004005942    0.0100
18     C18     4.1941    0.3297    0.9336 C.ar     1 ZINC000004005942   -0.6400
19     S19     4.7948   -0.7750    2.1679 S.o2     1 ZINC000004005942    2.6900
20     O20     6.2051   -0.4702    2.3530 O.co2    1 ZINC000004005942   -1.0500
21     O21     4.0188   -0.5208    3.3718 O.co2    1 ZINC000004005942   -1.0500
22     O22     4.5895   -2.1227    1.6605 O.co2    1 ZINC000004005942   -1.0500
23     C23     5.0441    0.7872   -0.0561 C.ar     1 ZINC000004005942   -0.0100
24     C24     4.5770    1.6543   -1.0270 C.ar     1 ZINC000004005942   -0.1200
25     C25     3.2568    2.0621   -1.0136 C.ar     1 ZINC000004005942   -0.0100
26     Cl26    2.6706    3.1501   -2.2328 Cl       1 ZINC000004005942   -0.0700
27     H27    -2.1878    1.6793    0.0428 H        1 ZINC000004005942    0.1700
28     H28    -0.0273    5.9284    0.0267 H        1 ZINC000004005942    0.1500
29     H29    -1.5088    7.8912    0.0600 H        1 ZINC000004005942    0.1600
30     H30    -4.9256    5.3365    0.1147 H        1 ZINC000004005942    0.1600
31     H31    -3.4627    3.3598    0.0765 H        1 ZINC000004005942    0.1600
32     H32     1.1731    4.1402    0.0076 H        1 ZINC000004005942    0.4400
33     H33     2.2110    0.3790    1.7295 H        1 ZINC000004005942    0.1500
34     H34     6.0755    0.4669   -0.0709 H        1 ZINC000004005942    0.1500
35     H35     5.2437    2.0101   -1.7986 H        1 ZINC000004005942    0.1400
@<TRIPOS>BOND
1     1     2     2
2     2     15    am
3     2     3     1
4     3     4     2
5     3     27    1
6     4     5     1
7     4     14    1
8     5     13    ar
9     5     6     ar
10    6     7     ar
11    6     28    1
12    7     8     ar
13    7     29    1
14    8     9     1
15    8     12    ar
16    9     10    2
17    9     11    2
18    12    13    ar
19    12    30    1
20    13    31    1
21    14    15    1
22    14    32    1
23    15    16    1
24    16    25    ar
25    16    17    ar
26    17    18    ar
27    17    33    1
28    18    19    1
29    18    23    ar
30    19    20    ar
31    19    21    ar
32    19    22    ar
33    23    24    ar
34    23    34    1
35    24    25    ar
36    24    35    1
37    25    26    1
@<TRIPOS>SUBSTRUCTURE
1   ZINC000004005942 1     RESIDUE    1   A     ZIN   1

@<TRIPOS>MOLECULE
ZINC000004005942
35    37    1     0     0
SMALL
USER_CHARGES
@<TRIPOS>ATOM
1      O1      0.0021   -0.0041    0.0020 O.2      1 ZINC000004005942   -0.5200
2      C2     -0.0144    1.2143    0.0087 C.2      1 ZINC000004005942    0.5300
3      C3     -1.1654    2.0270    0.0302 C.2      1 ZINC000004005942   -0.2900
4      C4     -0.7618    3.3288    0.0316 C.2      1 ZINC000004005942    0.2000
5      C5     -1.6461    4.5119    0.0520 C.ar     1 ZINC000004005942    0.0200
6      C6     -1.0990    5.7966    0.0457 C.ar     1 ZINC000004005942   -0.1100
7      C7     -1.9306    6.8970    0.0644 C.ar     1 ZINC000004005942   -0.0500
8      C8     -3.3040    6.7299    0.0893 C.ar     1 ZINC000004005942   -0.0400
9      N9     -4.1901    7.9154    0.1093 N.pl3    1 ZINC000004005942    0.0300
10     O10    -3.7100    9.0348    0.1037 O.2      1 ZINC000004005942   -0.1600
11     O11    -5.3994    7.7716    0.1312 O.2      1 ZINC000004005942   -0.1500
12     C12    -3.8528    5.4597    0.0952 C.ar     1 ZINC000004005942   -0.0500
13     C13    -3.0330    4.3506    0.0718 C.ar     1 ZINC000004005942   -0.0800
14     N14     0.6138    3.3477    0.0114 N.pl3    1 ZINC000004005942   -0.4800
15     N15     1.0650    2.0213    0.0027 N.am     1 ZINC000004005942   -0.3500
16     C16     2.4011    1.6074   -0.0168 C.ar     1 ZINC000004005942    0.1100
17     C17     2.8741    0.7370    0.9559 C.ar     1 ZINC000004005942    0.0100
18     C18     4.1941    0.3297    0.9336 C.ar     1 ZINC000004005942   -0.6400
19     S19     4.7948   -0.7750    2.1679 S.o2     1 ZINC000004005942    2.6900
20     O20     6.2051   -0.4702    2.3530 O.co2    1 ZINC000004005942   -1.0500
21     O21     4.0188   -0.5208    3.3718 O.co2    1 ZINC000004005942   -1.0500
22     O22     4.5895   -2.1227    1.6605 O.co2    1 ZINC000004005942   -1.0500
23     C23     5.0441    0.7872   -0.0561 C.ar     1 ZINC000004005942   -0.0100
24     C24     4.5770    1.6543   -1.0270 C.ar     1 ZINC000004005942   -0.1200
25     C25     3.2568    2.0621   -1.0136 C.ar     1 ZINC000004005942   -0.0100
26     Cl26    2.6706    3.1501   -2.2328 Cl       1 ZINC000004005942   -0.0700
27     H27    -2.1878    1.6793    0.0428 H        1 ZINC000004005942    0.1700
28     H28    -0.0273    5.9284    0.0267 H        1 ZINC000004005942    0.1500
29     H29    -1.5088    7.8912    0.0600 H        1 ZINC000004005942    0.1600
30     H30    -4.9256    5.3365    0.1147 H        1 ZINC000004005942    0.1600
31     H31    -3.4627    3.3598    0.0765 H        1 ZINC000004005942    0.1600
32     H32     1.1731    4.1402    0.0076 H        1 ZINC000004005942    0.4400
33     H33     2.2110    0.3790    1.7295 H        1 ZINC000004005942    0.1500
34     H34     6.0755    0.4669   -0.0709 H        1 ZINC000004005942    0.1500
35     H35     5.2437    2.0101   -1.7986 H        1 ZINC000004005942    0.1400
@<TRIPOS>BOND
1     1     2     2
2     2     15    am
3     2     3     1
4     3     4     2
5     3     27    1
6     4     5     1
7     4     14    1
8     5     13    ar
9     5     6     ar
10    6     7     ar
11    6     28    1
12    7     8     ar
13    7     29    1
14    8     9     1
15    8     12    ar
16    9     10    2
17    9     11    2
18    12    13    ar
19    12    30    1
20    13    31    1
21    14    15    1
22    14    32    1
23    15    16    1
24    16    25    ar
25    16    17    ar
26    17    18    ar
27    17    33    1
28    18    19    1
29    18    23    ar
30    19    20    ar
31    19    21    ar
32    19    22    ar
33    23    24    ar
34    23    34    1
35    24    25    ar
36    24    35    1
37    25    26    1
@<TRIPOS>SUBSTRUCTURE
1   ZINC000004005942 1     RESIDUE    1   A     ZIN   1
@<TRIPOS>MOLECULE
ZINC000012235971
48    51    1     0     0
SMALL
USER_CHARGES
@<TRIPOS>ATOM
1      C1     -0.0184    1.5028    0.0103 C.3      1 ZINC000012235971   -0.1000
2      C2      0.0021   -0.0041    0.0020 C.2      1 ZINC000012235971    0.1700
3      N3      0.0081   -0.7654   -1.0620 N.2      1 ZINC000012235971   -0.3100
4      N4      0.0285   -2.1021   -0.6436 N.pl3    1 ZINC000012235971   -0.3700
5      C5      0.0411   -3.2784   -1.5168 C.3      1 ZINC000012235971    0.1600
6      H6      0.0692   -4.1880   -0.9169 H        1 ZINC000012235971    0.1300
7      C7      1.2611   -3.2267   -2.4531 C.3      1 ZINC000012235971   -0.1300
8      C8      1.0708   -4.2709   -3.5712 C.3      1 ZINC000012235971   -0.5900
9      S9     -0.7406   -4.4392   -3.7622 S.o2     1 ZINC000012235971    2.4000
10     O10    -1.1341   -3.8991   -5.0162 O.2      1 ZINC000012235971   -0.9300
11     O11    -1.1311   -5.7582   -3.4057 O.2      1 ZINC000012235971   -0.9300
12     C12    -1.2161   -3.2796   -2.4243 C.3      1 ZINC000012235971   -0.6100
13     C13     0.0344   -2.1150    0.7058 C.2      1 ZINC000012235971    0.2000
14     C14     0.0552   -3.3404    1.5826 C.3      1 ZINC000012235971   -0.1300
15     C15     0.0240   -0.8302    1.1305 C.2      1 ZINC000012235971   -0.7500
16     S16     0.0271   -0.2930    2.8086 S.o2     1 ZINC000012235971    2.6400
17     O17    -0.5301    1.0142    2.8125 O.2      1 ZINC000012235971   -1.0300
18     O18    -0.5031   -1.3662    3.5744 O.2      1 ZINC000012235971   -1.0300
19     N19     1.6096   -0.1282    3.2676 N.pl3    1 ZINC000012235971   -1.0900
20     C20     1.9215    0.2908    4.5657 C.ar     1 ZINC000012235971    0.2900
21     C21     0.9048    0.5630    5.4709 C.ar     1 ZINC000012235971   -0.2600
22     C22     1.2126    0.9789    6.7523 C.ar     1 ZINC000012235971   -0.0500
23     C23     2.5362    1.1256    7.1382 C.ar     1 ZINC000012235971   -0.0600
24     O24     2.8199    1.5448    8.4030 O.3      1 ZINC000012235971   -0.3200
25     C25     4.1553    1.3244    8.8698 C.3      1 ZINC000012235971    0.0200
26     C26     5.1285    1.7639    7.7677 C.3      1 ZINC000012235971    0.0200
27     O27     4.8620    0.9837    6.5972 O.3      1 ZINC000012235971   -0.3100
28     C28     3.5567    0.8503    6.2351 C.ar     1 ZINC000012235971    0.0900
29     C29     3.2479    0.4292    4.9510 C.ar     1 ZINC000012235971   -0.1800
30     H30     1.0042    1.8801    0.0026 H        1 ZINC000012235971    0.0800
31     H31    -0.5455    1.8639   -0.8728 H        1 ZINC000012235971    0.0700
32     H32    -0.5286    1.8543    0.9071 H        1 ZINC000012235971    0.1200
33     H33     1.3450   -2.2320   -2.8910 H        1 ZINC000012235971    0.1000
34     H34     2.1657   -3.4542   -1.8892 H        1 ZINC000012235971    0.1000
35     H35     1.5180   -3.9166   -4.5000 H        1 ZINC000012235971    0.1500
36     H36     1.5107   -5.2240   -3.2778 H        1 ZINC000012235971    0.1400
37     H37    -2.0858   -3.6505   -1.8818 H        1 ZINC000012235971    0.1500
38     H38    -1.4044   -2.2834   -2.8245 H        1 ZINC000012235971    0.1500
39     H39     1.0877   -3.6217    1.7895 H        1 ZINC000012235971    0.0900
40     H40    -0.4577   -3.1252    2.5200 H        1 ZINC000012235971    0.1300
41     H41    -0.4495   -4.1608    1.0723 H        1 ZINC000012235971    0.0700
42     H42    -0.1272    0.4500    5.1734 H        1 ZINC000012235971    0.1100
43     H43     0.4201    1.1906    7.4548 H        1 ZINC000012235971    0.1200
44     H44     4.3312    1.9117    9.7711 H        1 ZINC000012235971    0.1100
45     H45     4.2989    0.2659    9.0863 H        1 ZINC000012235971    0.0600
46     H46     4.9804    2.8209    7.5465 H        1 ZINC000012235971    0.0700
47     H47     6.1546    1.5966    8.0952 H        1 ZINC000012235971    0.1100
48     H48     4.0395    0.2130    4.2488 H        1 ZINC000012235971    0.1200
@<TRIPOS>BOND
1     1     2     1
2     1     30    1
3     1     31    1
4     1     32    1
5     2     15    1
6     2     3     2
7     3     4     1
8     4     5     1
9     4     13    1
10    5     6     1
11    5     12    1
12    5     7     1
13    7     8     1
14    7     33    1
15    7     34    1
16    8     9     1
17    8     35    1
18    8     36    1
19    9     10    2
20    9     11    2
21    9     12    1
22    12    37    1
23    12    38    1
24    13    14    1
25    13    15    2
26    14    39    1
27    14    40    1
28    14    41    1
29    15    16    1
30    16    17    2
31    16    18    2
32    16    19    1
33    19    20    1
34    20    29    ar
35    20    21    ar
36    21    22    ar
37    21    42    1
38    22    23    ar
39    22    43    1
40    23    28    ar
41    23    24    1
42    24    25    1
43    25    26    1
44    25    44    1
45    25    45    1
46    26    27    1
47    26    46    1
48    26    47    1
49    27    28    1
50    28    29    ar
51    29    48    1
@<TRIPOS>SUBSTRUCTURE
1   ZINC000012235971 1     RESIDUE    1   A     ZIN   1

@<TRIPOS>MOLECULE
ZINC000012235971
49    52    1     0     0
SMALL
USER_CHARGES
@<TRIPOS>ATOM
1      C1      0.7972    1.7008    0.0921 C.3      1 ZINC000012235971   -0.1100
2      C2      0.5233    0.2272   -0.0643 C.2      1 ZINC000012235971    0.1700
3      N3      0.5382   -0.4407   -1.1893 N.2      1 ZINC000012235971   -0.2900
4      N4      0.2342   -1.7789   -0.9078 N.pl3    1 ZINC000012235971   -0.3500
5      C5      0.1459   -2.8666   -1.8852 C.3      1 ZINC000012235971    0.1600
6      H6     -0.0939   -3.8027   -1.3808 H        1 ZINC000012235971    0.1300
7      C7      1.4777   -3.0029   -2.6438 C.3      1 ZINC000012235971   -0.1200
8      C8      1.2549   -3.9020   -3.8761 C.3      1 ZINC000012235971   -0.5900
9      S9     -0.5055   -3.6760   -4.3184 S.o2     1 ZINC000012235971    2.4000
10     O10    -0.5950   -2.9777   -5.5527 O.2      1 ZINC000012235971   -0.9200
11     O11    -1.1951   -4.9070   -4.1500 O.2      1 ZINC000012235971   -0.9200
12     C12    -0.9382   -2.5415   -2.9449 C.3      1 ZINC000012235971   -0.6100
13     C13     0.0371   -1.8891    0.4226 C.2      1 ZINC000012235971    0.2300
14     C14    -0.3129   -3.1515    1.1674 C.3      1 ZINC000012235971   -0.1500
15     C15     0.2153   -0.6639    0.9688 C.2      1 ZINC000012235971   -0.8200
16     S16     0.0742   -0.2605    2.6782 S.o2     1 ZINC000012235971    2.7200
17     O17    -0.3848    1.0831    2.7368 O.2      1 ZINC000012235971   -0.9500
18     O18    -0.6119   -1.3436    3.2908 O.2      1 ZINC000012235971   -0.9500
19     N19     1.6051   -0.2595    3.3097 N.am     1 ZINC000012235971   -1.0500
20     C20     2.3694   -1.4315    3.2932 C.ar     1 ZINC000012235971    0.1500
21     C21     1.7986   -2.6384    3.6735 C.ar     1 ZINC000012235971   -0.1500
22     C22     2.5538   -3.7957    3.6594 C.ar     1 ZINC000012235971   -0.0900
23     C23     3.8827   -3.7556    3.2657 C.ar     1 ZINC000012235971    0.0400
24     O24     4.6136   -4.9052    3.2664 O.3      1 ZINC000012235971   -0.3000
25     C25     5.8319   -4.8938    2.5145 C.3      1 ZINC000012235971    0.0200
26     C26     6.5887   -3.6003    2.8449 C.3      1 ZINC000012235971    0.0200
27     O27     5.7577   -2.4909    2.4866 O.3      1 ZINC000012235971   -0.3100
28     C28     4.4561   -2.5491    2.8808 C.ar     1 ZINC000012235971    0.0700
29     C29     3.6973   -1.3890    2.8911 C.ar     1 ZINC000012235971   -0.1200
30     H30     1.8635    1.8568    0.2561 H        1 ZINC000012235971    0.0900
31     H31     0.4880    2.2258   -0.8117 H        1 ZINC000012235971    0.0900
32     H32     0.2383    2.0857    0.9451 H        1 ZINC000012235971    0.1100
33     H33     1.8188   -2.0187   -2.9651 H        1 ZINC000012235971    0.1000
34     H34     2.2263   -3.4533   -1.9920 H        1 ZINC000012235971    0.1000
35     H35     1.8957   -3.5831   -4.6982 H        1 ZINC000012235971    0.1500
36     H36     1.4512   -4.9443   -3.6246 H        1 ZINC000012235971    0.1500
37     H37    -1.9344   -2.7613   -2.5608 H        1 ZINC000012235971    0.1500
38     H38    -0.8663   -1.5019   -3.2645 H        1 ZINC000012235971    0.1600
39     H39     0.6022   -3.6554    1.4786 H        1 ZINC000012235971    0.1000
40     H40    -0.9071   -2.9019    2.0465 H        1 ZINC000012235971    0.1300
41     H41    -0.8869   -3.8105    0.5160 H        1 ZINC000012235971    0.0900
42     H42     1.9720    0.5534    3.6910 H        1 ZINC000012235971    0.4300
43     H43     0.7638   -2.6730    3.9809 H        1 ZINC000012235971    0.1700
44     H44     2.1080   -4.7335    3.9561 H        1 ZINC000012235971    0.1400
45     H45     6.4405   -5.7558    2.7877 H        1 ZINC000012235971    0.1200
46     H46     5.6062   -4.9256    1.4486 H        1 ZINC000012235971    0.0800
47     H47     6.8086   -3.5654    3.9119 H        1 ZINC000012235971    0.0800
48     H48     7.5178   -3.5625    2.2761 H        1 ZINC000012235971    0.1200
49     H49     4.1407   -0.4512    2.5906 H        1 ZINC000012235971    0.1400
@<TRIPOS>BOND
1     1     2     1
2     1     30    1
3     1     31    1
4     1     32    1
5     2     15    1
6     2     3     2
7     3     4     1
8     4     5     1
9     4     13    1
10    5     6     1
11    5     12    1
12    5     7     1
13    7     8     1
14    7     33    1
15    7     34    1
16    8     9     1
17    8     35    1
18    8     36    1
19    9     10    2
20    9     11    2
21    9     12    1
22    12    37    1
23    12    38    1
24    13    14    1
25    13    15    2
26    14    39    1
27    14    40    1
28    14    41    1
29    15    16    1
30    16    17    2
31    16    18    2
32    16    19    am
33    19    20    1
34    19    42    1
35    20    29    ar
36    20    21    ar
37    21    22    ar
38    21    43    1
39    22    23    ar
40    22    44    1
41    23    28    ar
42    23    24    1
43    24    25    1
44    25    26    1
45    25    45    1
46    25    46    1
47    26    27    1
48    26    47    1
49    26    48    1
50    27    28    1
51    28    29    ar
52    29    49    1
@<TRIPOS>SUBSTRUCTURE
1   ZINC000012235971 1     RESIDUE    1   A     ZIN   1
@<TRIPOS>MOLECULE
ZINC000013676119
48    50    1     0     0
SMALL
USER_CHARGES
@<TRIPOS>ATOM
1      C1     -2.8194   -7.4709    4.3734 C.3      1 ZINC000013676119   -0.1300
2      C2     -2.1000   -6.7310    3.2751 C.ar     1 ZINC000013676119   -0.0200
3      C3     -1.4902   -5.5196    3.5422 C.ar     1 ZINC000013676119   -0.1400
4      C4     -0.8303   -4.8409    2.5347 C.ar     1 ZINC000013676119   -0.0100
5      C5     -0.7799   -5.3740    1.2603 C.ar     1 ZINC000013676119   -0.6800
6      S6      0.0607   -4.5087   -0.0239 S.o2     1 ZINC000013676119    2.6900
7      O7     -0.4207   -5.0429   -1.2495 O.2      1 ZINC000013676119   -0.9500
8      O8     -0.0155   -3.1286    0.3055 O.2      1 ZINC000013676119   -0.9400
9      N9      1.6609   -4.9244    0.0708 N.am     1 ZINC000013676119   -1.0600
10     C10     2.3883   -4.6320    1.2191 C.ar     1 ZINC000013676119    0.1700
11     C11     2.2925   -3.3703    1.7997 C.ar     1 ZINC000013676119   -0.1600
12     C12     3.0111   -3.0779    2.9361 C.ar     1 ZINC000013676119   -0.0400
13     C13     3.8381   -4.0493    3.5077 C.ar     1 ZINC000013676119   -0.1400
14     C14     4.6095   -3.7392    4.7263 C.2      1 ZINC000013676119    0.5600
15     O15     4.1488   -2.9860    5.5624 O.2      1 ZINC000013676119   -0.5300
16     N16     5.8250   -4.2908    4.9130 N.am     1 ZINC000013676119   -0.6100
17     C17     6.4483   -5.1021    3.8580 C.3      1 ZINC000013676119    0.0700
18     C18     7.8300   -4.5165    3.5413 C.3      1 ZINC000013676119    0.1000
19     N19     8.5560   -4.3170    4.8034 N.am     1 ZINC000013676119   -0.6200
20     C20     9.7719   -4.8679    4.9897 C.2      1 ZINC000013676119    0.4900
21     O21    10.3615   -4.6963    6.0356 O.2      1 ZINC000013676119   -0.5500
22     C22     7.9327   -3.5058    5.8585 C.3      1 ZINC000013676119    0.0900
23     C23     6.5535   -4.0867    6.1730 C.3      1 ZINC000013676119    0.1000
24     C24     3.9322   -5.3153    2.9224 C.ar     1 ZINC000013676119   -0.0800
25     C25     3.2066   -5.6035    1.7892 C.ar     1 ZINC000013676119   -0.1400
26     C26    -1.3885   -6.5862    0.9935 C.ar     1 ZINC000013676119   -0.0100
27     C27    -2.0451   -7.2666    2.0019 C.ar     1 ZINC000013676119   -0.1400
28     H28    -2.1212   -8.1366    4.8808 H        1 ZINC000013676119    0.0800
29     H29    -3.2241   -6.7551    5.0889 H        1 ZINC000013676119    0.0700
30     H30    -3.6331   -8.0560    3.9448 H        1 ZINC000013676119    0.0700
31     H31    -1.5296   -5.1031    4.5379 H        1 ZINC000013676119    0.1300
32     H32    -0.3545   -3.8941    2.7433 H        1 ZINC000013676119    0.1400
33     H33     2.0907   -5.3719   -0.6748 H        1 ZINC000013676119    0.4300
34     H34     1.6537   -2.6201    1.3574 H        1 ZINC000013676119    0.1700
35     H35     2.9367   -2.0988    3.3858 H        1 ZINC000013676119    0.1400
36     H36     6.5571   -6.1302    4.2032 H        1 ZINC000013676119    0.0800
37     H37     5.8268   -5.0780    2.9628 H        1 ZINC000013676119    0.1200
38     H38     8.3836   -5.2080    2.9061 H        1 ZINC000013676119    0.1000
39     H39     7.7138   -3.5603    3.0310 H        1 ZINC000013676119    0.0800
40     H40    10.2211   -5.4620    4.2077 H        1 ZINC000013676119    0.1300
41     H41     8.5542   -3.5298    6.7536 H        1 ZINC000013676119    0.1100
42     H42     7.8239   -2.4776    5.5132 H        1 ZINC000013676119    0.0700
43     H43     6.0010   -3.3943    6.8082 H        1 ZINC000013676119    0.1100
44     H44     6.6671   -5.0434    6.6828 H        1 ZINC000013676119    0.0700
45     H45     4.5705   -6.0678    3.3615 H        1 ZINC000013676119    0.1400
46     H46     3.2786   -6.5814    1.3367 H        1 ZINC000013676119    0.1400
47     H47    -1.3487   -7.0028   -0.0021 H        1 ZINC000013676119    0.1400
48     H48    -2.5206   -8.2137    1.7935 H        1 ZINC000013676119    0.1300
@<TRIPOS>BOND
1     1     2     1
2     1     28    1
3     1     29    1
4     1     30    1
5     2     27    ar
6     2     3     ar
7     3     4     ar
8     3     31    1
9     4     5     ar
10    4     32    1
11    5     6     1
12    5     26    ar
13    6     7     2
14    6     8     2
15    6     9     am
16    9     10    1
17    9     33    1
18    10    25    ar
19    10    11    ar
20    11    12    ar
21    11    34    1
22    12    13    ar
23    12    35    1
24    13    14    1
25    13    24    ar
26    14    15    2
27    14    16    am
28    16    23    1
29    16    17    1
30    17    18    1
31    17    36    1
32    17    37    1
33    18    19    1
34    18    38    1
35    18    39    1
36    19    20    am
37    19    22    1
38    20    21    2
39    20    40    1
40    22    23    1
41    22    41    1
42    22    42    1
43    23    43    1
44    23    44    1
45    24    25    ar
46    24    45    1
47    25    46    1
48    26    27    ar
49    26    47    1
50    27    48    1
@<TRIPOS>SUBSTRUCTURE
1   ZINC000013676119 1     RESIDUE    1   A     ZIN   1

@<TRIPOS>MOLECULE
ZINC000013676119
47    49    1     0     0
SMALL
USER_CHARGES
@<TRIPOS>ATOM
1      C1      0.0515    1.5202   -0.1065 C.3      1 ZINC000013676119   -0.1200
2      C2      0.0790    0.0174    0.0028 C.ar     1 ZINC000013676119   -0.0500
3      C3     -0.2613   -0.7613   -1.0875 C.ar     1 ZINC000013676119   -0.1500
4      C4     -0.2361   -2.1397   -0.9872 C.ar     1 ZINC000013676119   -0.0200
5      C5      0.1300   -2.7395    0.2033 C.ar     1 ZINC000013676119   -0.6200
6      S6      0.1616   -4.4966    0.3313 S.o2     1 ZINC000013676119    2.6100
7      O7      0.0179   -4.8010    1.7118 O.2      1 ZINC000013676119   -1.0300
8      O8     -0.7204   -4.9877   -0.6688 O.2      1 ZINC000013676119   -1.0200
9      N9      1.6813   -4.9923   -0.1012 N.pl3    1 ZINC000013676119   -1.0800
10     C10     1.9995   -6.3458   -0.0937 C.ar     1 ZINC000013676119    0.3100
11     C11     1.0377   -7.2835    0.2721 C.ar     1 ZINC000013676119   -0.2700
12     C12     1.3495   -8.6237    0.2806 C.ar     1 ZINC000013676119    0.0000
13     C13     2.6337   -9.0434   -0.0788 C.ar     1 ZINC000013676119   -0.2600
14     C14     2.9711  -10.4794   -0.0713 C.2      1 ZINC000013676119    0.5800
15     O15     2.1788  -11.2924   -0.5069 O.2      1 ZINC000013676119   -0.5500
16     N16     4.1576  -10.8903    0.4184 N.am     1 ZINC000013676119   -0.6200
17     C17     5.0681   -9.9382    1.0699 C.3      1 ZINC000013676119    0.0900
18     C18     5.4014  -10.4605    2.4729 C.3      1 ZINC000013676119    0.0900
19     N19     5.8077  -11.8688    2.3654 N.am     1 ZINC000013676119   -0.6200
20     C20     6.9939  -12.2799    2.8559 C.2      1 ZINC000013676119    0.4900
21     O21     7.3183  -13.4446    2.7614 O.2      1 ZINC000013676119   -0.5600
22     C22     4.8973  -12.8209    1.7139 C.3      1 ZINC000013676119    0.0900
23     C23     4.5615  -12.2997    0.3160 C.3      1 ZINC000013676119    0.1000
24     C24     3.5973   -8.0993   -0.4456 C.ar     1 ZINC000013676119   -0.0500
25     C25     3.2776   -6.7610   -0.4575 C.ar     1 ZINC000013676119   -0.1900
26     C26     0.4716   -1.9608    1.2931 C.ar     1 ZINC000013676119   -0.0200
27     C27     0.4500   -0.5824    1.1917 C.ar     1 ZINC000013676119   -0.1500
28     H28     1.0252    1.8781   -0.4411 H        1 ZINC000013676119    0.0700
29     H29    -0.7118    1.8183   -0.8253 H        1 ZINC000013676119    0.0700
30     H30    -0.1789    1.9512    0.8678 H        1 ZINC000013676119    0.0700
31     H31    -0.5473   -0.2926   -2.0175 H        1 ZINC000013676119    0.1300
32     H32    -0.5027   -2.7481   -1.8388 H        1 ZINC000013676119    0.1400
33     H33     0.0459   -6.9586    0.5500 H        1 ZINC000013676119    0.1000
34     H34     0.6030   -9.3506    0.5648 H        1 ZINC000013676119    0.1100
35     H35     5.9838   -9.8494    0.4855 H        1 ZINC000013676119    0.0700
36     H36     4.5847   -8.9643    1.1474 H        1 ZINC000013676119    0.1200
37     H37     6.2178   -9.8756    2.8966 H        1 ZINC000013676119    0.1000
38     H38     4.5216  -10.3813    3.1114 H        1 ZINC000013676119    0.0800
39     H39     7.6554  -11.5720    3.3332 H        1 ZINC000013676119    0.1300
40     H40     5.3807  -13.7948    1.6364 H        1 ZINC000013676119    0.1000
41     H41     3.9815  -12.9098    2.2984 H        1 ZINC000013676119    0.0700
42     H42     3.7451  -12.8855   -0.1065 H        1 ZINC000013676119    0.1000
43     H43     5.4402  -12.3773   -0.3242 H        1 ZINC000013676119    0.0700
44     H44     4.5903   -8.4204   -0.7234 H        1 ZINC000013676119    0.1100
45     H45     4.0215   -6.0312   -0.7412 H        1 ZINC000013676119    0.1200
46     H46     0.7580   -2.4295    2.2231 H        1 ZINC000013676119    0.1400
47     H47     0.7170    0.0260    2.0432 H        1 ZINC000013676119    0.1300
@<TRIPOS>BOND
1     1     2     1
2     1     28    1
3     1     29    1
4     1     30    1
5     2     27    ar
6     2     3     ar
7     3     4     ar
8     3     31    1
9     4     5     ar
10    4     32    1
11    5     6     1
12    5     26    ar
13    6     7     2
14    6     8     2
15    6     9     1
16    9     10    1
17    10    25    ar
18    10    11    ar
19    11    12    ar
20    11    33    1
21    12    13    ar
22    12    34    1
23    13    14    1
24    13    24    ar
25    14    15    2
26    14    16    am
27    16    23    1
28    16    17    1
29    17    18    1
30    17    35    1
31    17    36    1
32    18    19    1
33    18    37    1
34    18    38    1
35    19    20    am
36    19    22    1
37    20    21    2
38    20    39    1
39    22    23    1
40    22    40    1
41    22    41    1
42    23    42    1
43    23    43    1
44    24    25    ar
45    24    44    1
46    25    45    1
47    26    27    ar
48    26    46    1
49    27    47    1
@<TRIPOS>SUBSTRUCTURE
1   ZINC000013676119 1     RESIDUE    1   A     ZIN   1
@<TRIPOS>MOLECULE
ZINC000019236156
60    64    1     0     0
SMALL
USER_CHARGES
@<TRIPOS>ATOM
1      C1     -0.0184    1.5028    0.0103 C.3      1 ZINC000019236156   -0.1100
2      C2      0.0021   -0.0041    0.0020 C.ar     1 ZINC000019236156    0.1400
3      C3      0.0056   -0.6804   -1.2030 C.ar     1 ZINC000019236156   -0.1400
4      C4      0.0249   -2.0669   -1.1996 C.ar     1 ZINC000019236156   -0.0600
5      C5      0.0400   -2.7236    0.0212 C.ar     1 ZINC000019236156   -0.1500
6      C6      0.0354   -1.9798    1.1862 C.ar     1 ZINC000019236156    0.0600
7      C7      0.0522   -2.6830    2.5189 C.3      1 ZINC000019236156    0.0600
8      N8      1.4359   -2.7852    3.0013 N.4      1 ZINC000019236156   -0.3900
9      H9      1.8714   -1.8751    3.0195 H        1 ZINC000019236156    0.4300
10     C10     2.2163   -3.7176    2.1477 C.3      1 ZINC000019236156    0.0000
11     C11     3.3970   -4.1633    3.0368 C.3      1 ZINC000019236156   -0.1400
12     C12     2.9071   -3.9597    4.4853 C.3      1 ZINC000019236156   -0.0600
13     H13     3.5419   -3.2399    5.0021 H        1 ZINC000019236156    0.1400
14     C14     2.8977   -5.2731    5.2242 C.2      1 ZINC000019236156    0.3900
15     N15     1.8034   -5.9812    5.2548 N.2      1 ZINC000019236156   -0.5300
16     C16     1.7371   -7.1590    5.8941 C.2      1 ZINC000019236156    0.1500
17     C17     2.8366   -7.6434    6.5196 C.2      1 ZINC000019236156   -0.2000
18     C18     2.8663   -8.9642    7.2375 C.3      1 ZINC000019236156   -0.0800
19     C19     1.4520   -9.4208    7.5947 C.3      1 ZINC000019236156    0.1100
20     N20     0.6089   -9.2537    6.3990 N.am     1 ZINC000019236156   -0.6200
21     C21     0.0353  -10.3117    5.7921 C.2      1 ZINC000019236156    0.5400
22     O22     0.2092  -11.4294    6.2296 O.2      1 ZINC000019236156   -0.5200
23     C23    -0.8219  -10.1058    4.5699 C.3      1 ZINC000019236156   -0.1400
24     C24    -0.0162   -9.9840    3.2657 C.3      1 ZINC000019236156   -0.1200
25     C25    -0.1237  -11.5136    3.1489 C.3      1 ZINC000019236156   -0.1400
26     C26    -1.4019  -11.4099    3.9975 C.3      1 ZINC000019236156   -0.1200
27     C27     0.4180   -7.8891    5.8952 C.3      1 ZINC000019236156    0.1600
28     C28     4.0225   -6.8704    6.4956 C.2      1 ZINC000019236156    0.5200
29     O29     5.0301   -7.2640    7.0594 O.2      1 ZINC000019236156   -0.5000
30     N30     4.0220   -5.6951    5.8355 N.am     1 ZINC000019236156   -0.6200
31     C31     1.4713   -3.4052    4.3509 C.3      1 ZINC000019236156    0.0100
32     N32     0.0219   -0.6619    1.1449 N.ar     1 ZINC000019236156   -0.4700
33     H33     1.0042    1.8801    0.0026 H        1 ZINC000019236156    0.0900
34     H34    -0.5455    1.8639   -0.8728 H        1 ZINC000019236156    0.0900
35     H35    -0.5286    1.8543    0.9071 H        1 ZINC000019236156    0.0800
36     H36    -0.0069   -0.1359   -2.1356 H        1 ZINC000019236156    0.1500
37     H37     0.0278   -2.6220   -2.1261 H        1 ZINC000019236156    0.1500
38     H38     0.0549   -3.8028    0.0614 H        1 ZINC000019236156    0.1400
39     H39    -0.5418   -2.1166    3.2362 H        1 ZINC000019236156    0.1500
40     H40    -0.3685   -3.6824    2.4077 H        1 ZINC000019236156    0.1500
41     H41     1.6066   -4.5763    1.8667 H        1 ZINC000019236156    0.1400
42     H42     2.5825   -3.2033    1.2591 H        1 ZINC000019236156    0.1400
43     H43     3.6289   -5.2135    2.8597 H        1 ZINC000019236156    0.1200
44     H44     4.2723   -3.5434    2.8426 H        1 ZINC000019236156    0.1200
45     H45     3.3326   -9.7111    6.5950 H        1 ZINC000019236156    0.0900
46     H46     3.4518   -8.8626    8.1512 H        1 ZINC000019236156    0.1000
47     H47     1.4668  -10.4693    7.8923 H        1 ZINC000019236156    0.1100
48     H48     1.0620   -8.8107    8.4094 H        1 ZINC000019236156    0.0800
49     H49    -1.5642   -9.3185    4.7013 H        1 ZINC000019236156    0.1000
50     H50    -0.5423   -9.4477    2.4760 H        1 ZINC000019236156    0.0900
51     H51     1.0033   -9.6280    3.4139 H        1 ZINC000019236156    0.0700
52     H52    -0.3020  -11.8623    2.1317 H        1 ZINC000019236156    0.0700
53     H53     0.6873  -12.0474    3.6444 H        1 ZINC000019236156    0.0800
54     H54    -1.5011  -12.2050    4.7365 H        1 ZINC000019236156    0.0800
55     H55    -2.3069  -11.2635    3.4078 H        1 ZINC000019236156    0.0900
56     H56    -0.2881   -7.3613    6.5362 H        1 ZINC000019236156    0.1000
57     H57     0.0248   -7.9291    4.8794 H        1 ZINC000019236156    0.1100
58     H58     4.8254   -5.1522    5.8066 H        1 ZINC000019236156    0.4200
59     H59     1.2786   -2.6583    5.1210 H        1 ZINC000019236156    0.1500
60     H60     0.7438   -4.2143    4.4143 H        1 ZINC000019236156    0.1600
@<TRIPOS>BOND
1     1     2     1
2     1     33    1
3     1     34    1
4     1     35    1
5     2     32    ar
6     2     3     ar
7     3     4     ar
8     3     36    1
9     4     5     ar
10    4     37    1
11    5     6     ar
12    5     38    1
13    6     7     1
14    6     32    ar
15    7     8     1
16    7     39    1
17    7     40    1
18    8     9     1
19    8     31    1
20    8     10    1
21    10    11    1
22    10    41    1
23    10    42    1
24    11    12    1
25    11    43    1
26    11    44    1
27    12    13    1
28    12    14    1
29    12    31    1
30    14    30    1
31    14    15    2
32    15    16    1
33    16    27    1
34    16    17    2
35    17    18    1
36    17    28    1
37    18    19    1
38    18    45    1
39    18    46    1
40    19    20    1
41    19    47    1
42    19    48    1
43    20    21    am
44    20    27    1
45    21    22    2
46    21    23    1
47    23    26    1
48    23    24    1
49    23    49    1
50    24    25    1
51    24    50    1
52    24    51    1
53    25    26    1
54    25    52    1
55    25    53    1
56    26    54    1
57    26    55    1
58    27    56    1
59    27    57    1
60    28    29    2
61    28    30    am
62    30    58    1
63    31    59    1
64    31    60    1
@<TRIPOS>SUBSTRUCTURE
1   ZINC000019236156 1     RESIDUE    1   A     ZIN   1

@<TRIPOS>MOLECULE
ZINC000019236156
60    64    1     0     0
SMALL
USER_CHARGES
@<TRIPOS>ATOM
1      C1     -0.0184    1.5028    0.0103 C.3      1 ZINC000019236156   -0.1100
2      C2      0.0021   -0.0041    0.0020 C.ar     1 ZINC000019236156    0.1400
3      C3      0.0056   -0.6804   -1.2030 C.ar     1 ZINC000019236156   -0.1400
4      C4      0.0249   -2.0669   -1.1996 C.ar     1 ZINC000019236156   -0.0600
5      C5      0.0400   -2.7236    0.0212 C.ar     1 ZINC000019236156   -0.1500
6      C6      0.0354   -1.9798    1.1862 C.ar     1 ZINC000019236156    0.0600
7      C7      0.0522   -2.6830    2.5189 C.3      1 ZINC000019236156    0.0600
8      N8      1.4359   -2.7852    3.0013 N.4      1 ZINC000019236156   -0.3900
9      H9      2.0168   -3.2244    2.3029 H        1 ZINC000019236156    0.4300
10     C10     1.9638   -1.4368    3.3322 C.3      1 ZINC000019236156    0.0100
11     C11     3.1265   -1.7414    4.3099 C.3      1 ZINC000019236156   -0.1400
12     C12     2.5802   -2.9270    5.1380 C.3      1 ZINC000019236156   -0.0600
13     H13     2.1578   -2.5697    6.0771 H        1 ZINC000019236156    0.1400
14     C14     3.6755   -3.9271    5.4051 C.2      1 ZINC000019236156    0.3900
15     N15     3.8324   -4.9350    4.5932 N.2      1 ZINC000019236156   -0.5400
16     C16     4.7919   -5.8543    4.7791 C.2      1 ZINC000019236156    0.1500
17     C17     5.6369   -5.7358    5.8311 C.2      1 ZINC000019236156   -0.2000
18     C18     6.7579   -6.6997    6.1053 C.3      1 ZINC000019236156   -0.0800
19     C19     6.5170   -8.0305    5.3931 C.3      1 ZINC000019236156    0.1100
20     N20     6.1263   -7.7344    4.0045 N.am     1 ZINC000019236156   -0.6200
21     C21     6.8880   -8.1247    2.9634 C.2      1 ZINC000019236156    0.5400
22     O22     7.9187   -8.7329    3.1605 O.2      1 ZINC000019236156   -0.5200
23     C23     6.4592   -7.8055    1.5544 C.3      1 ZINC000019236156   -0.1400
24     C24     6.8344   -6.3840    1.1035 C.3      1 ZINC000019236156   -0.1200
25     C25     8.1695   -6.9745    0.6201 C.3      1 ZINC000019236156   -0.1400
26     C26     7.4350   -8.3185    0.4823 C.3      1 ZINC000019236156   -0.1200
27     C27     4.8741   -6.9978    3.8001 C.3      1 ZINC000019236156    0.1600
28     C28     5.4610   -4.6473    6.7191 C.2      1 ZINC000019236156    0.5200
29     O29     6.1913   -4.5130    7.6869 O.2      1 ZINC000019236156   -0.5000
30     N30     4.4769   -3.7588    6.4754 N.am     1 ZINC000019236156   -0.6200
31     C31     1.4810   -3.5579    4.2616 C.3      1 ZINC000019236156    0.0000
32     N32     0.0219   -0.6619    1.1449 N.ar     1 ZINC000019236156   -0.4700
33     H33     1.0042    1.8801    0.0026 H        1 ZINC000019236156    0.0900
34     H34    -0.5455    1.8639   -0.8728 H        1 ZINC000019236156    0.0900
35     H35    -0.5286    1.8543    0.9071 H        1 ZINC000019236156    0.0800
36     H36    -0.0069   -0.1359   -2.1356 H        1 ZINC000019236156    0.1500
37     H37     0.0278   -2.6220   -2.1261 H        1 ZINC000019236156    0.1500
38     H38     0.0549   -3.8028    0.0614 H        1 ZINC000019236156    0.1400
39     H39    -0.5418   -2.1166    3.2362 H        1 ZINC000019236156    0.1500
40     H40    -0.3685   -3.6824    2.4077 H        1 ZINC000019236156    0.1500
41     H41     2.3348   -0.9385    2.4366 H        1 ZINC000019236156    0.1400
42     H42     1.1987   -0.8333    3.8205 H        1 ZINC000019236156    0.1400
43     H43     4.0234   -2.0333    3.7635 H        1 ZINC000019236156    0.1000
44     H44     3.3264   -0.8828    4.9509 H        1 ZINC000019236156    0.1300
45     H45     7.6952   -6.2691    5.7531 H        1 ZINC000019236156    0.0900
46     H46     6.8257   -6.8748    7.1790 H        1 ZINC000019236156    0.1000
47     H47     7.4313   -8.6239    5.4006 H        1 ZINC000019236156    0.1100
48     H48     5.7173   -8.5771    5.8929 H        1 ZINC000019236156    0.0800
49     H49     5.4191   -8.0667    1.3591 H        1 ZINC000019236156    0.1000
50     H50     6.2083   -6.0022    0.2970 H        1 ZINC000019236156    0.0900
51     H51     6.9418   -5.6785    1.9275 H        1 ZINC000019236156    0.0600
52     H52     8.5100   -6.5636   -0.3304 H        1 ZINC000019236156    0.0700
53     H53     8.9473   -6.9782    1.3837 H        1 ZINC000019236156    0.0900
54     H54     8.0273   -9.1748    0.8048 H        1 ZINC000019236156    0.0900
55     H55     6.9731   -8.4656   -0.4940 H        1 ZINC000019236156    0.0900
56     H56     4.0292   -7.6690    3.9545 H        1 ZINC000019236156    0.1000
57     H57     4.8450   -6.6072    2.7829 H        1 ZINC000019236156    0.1100
58     H58     4.3418   -3.0057    7.0715 H        1 ZINC000019236156    0.4200
59     H59     0.5188   -3.4942    4.7698 H        1 ZINC000019236156    0.1400
60     H60     1.7251   -4.5993    4.0521 H        1 ZINC000019236156    0.1600
@<TRIPOS>BOND
1     1     2     1
2     1     33    1
3     1     34    1
4     1     35    1
5     2     32    ar
6     2     3     ar
7     3     4     ar
8     3     36    1
9     4     5     ar
10    4     37    1
11    5     6     ar
12    5     38    1
13    6     7     1
14    6     32    ar
15    7     8     1
16    7     39    1
17    7     40    1
18    8     9     1
19    8     31    1
20    8     10    1
21    10    11    1
22    10    41    1
23    10    42    1
24    11    12    1
25    11    43    1
26    11    44    1
27    12    13    1
28    12    14    1
29    12    31    1
30    14    30    1
31    14    15    2
32    15    16    1
33    16    27    1
34    16    17    2
35    17    18    1
36    17    28    1
37    18    19    1
38    18    45    1
39    18    46    1
40    19    20    1
41    19    47    1
42    19    48    1
43    20    21    am
44    20    27    1
45    21    22    2
46    21    23    1
47    23    26    1
48    23    24    1
49    23    49    1
50    24    25    1
51    24    50    1
52    24    51    1
53    25    26    1
54    25    52    1
55    25    53    1
56    26    54    1
57    26    55    1
58    27    56    1
59    27    57    1
60    28    29    2
61    28    30    am
62    30    58    1
63    31    59    1
64    31    60    1
@<TRIPOS>SUBSTRUCTURE
1   ZINC000019236156 1     RESIDUE    1   A     ZIN   1

@<TRIPOS>MOLECULE
ZINC000019236156
58    62    1     0     0
SMALL
USER_CHARGES
@<TRIPOS>ATOM
1      C1     -0.0184    1.5028    0.0103 C.3      1 ZINC000019236156   -0.1000
2      C2      0.0021   -0.0041    0.0020 C.ar     1 ZINC000019236156    0.1300
3      C3      0.0056   -0.6804   -1.2030 C.ar     1 ZINC000019236156   -0.1800
4      C4      0.0249   -2.0669   -1.1996 C.ar     1 ZINC000019236156   -0.0700
5      C5      0.0400   -2.7236    0.0212 C.ar     1 ZINC000019236156   -0.1600
6      C6      0.0354   -1.9798    1.1862 C.ar     1 ZINC000019236156    0.1500
7      C7      0.0522   -2.6830    2.5189 C.3      1 ZINC000019236156    0.0900
8      N8      1.4359   -2.7852    3.0013 N.3      1 ZINC000019236156   -0.5100
9      C9      1.9417   -1.4631    3.4512 C.3      1 ZINC000019236156    0.0500
10     C10     3.1296   -1.8334    4.3745 C.3      1 ZINC000019236156   -0.1100
11     C11     2.6247   -3.1051    5.0940 C.3      1 ZINC000019236156   -0.0200
12     H12     2.2134   -2.8493    6.0704 H        1 ZINC000019236156    0.0800
13     C13     3.7458   -4.1010    5.2443 C.2      1 ZINC000019236156    0.3600
14     N14     4.7641   -4.0442    4.4322 N.2      1 ZINC000019236156   -0.6100
15     C15     5.7919   -4.9021    4.5206 C.2      1 ZINC000019236156    0.1500
16     C16     5.7891   -5.8522    5.4860 C.2      1 ZINC000019236156   -0.3300
17     C17     6.9071   -6.8386    5.6802 C.3      1 ZINC000019236156   -0.0500
18     C18     7.7497   -6.9622    4.4108 C.3      1 ZINC000019236156    0.1100
19     N19     8.0459   -5.6015    3.9321 N.am     1 ZINC000019236156   -0.6000
20     C20     9.3099   -5.1372    3.8772 C.2      1 ZINC000019236156    0.5400
21     O21    10.2314   -5.8444    4.2262 O.2      1 ZINC000019236156   -0.5500
22     C22     9.5785   -3.7394    3.3822 C.3      1 ZINC000019236156   -0.1400
23     C23     9.3864   -2.6574    4.4579 C.3      1 ZINC000019236156   -0.1300
24     C24    10.8651   -2.8693    4.8231 C.3      1 ZINC000019236156   -0.1400
25     C25    11.0693   -3.3621    3.3808 C.3      1 ZINC000019236156   -0.1200
26     C26     6.9094   -4.7718    3.5169 C.3      1 ZINC000019236156    0.1700
27     C27     4.6790   -5.9211    6.3620 C.2      1 ZINC000019236156    0.4900
28     O28     4.6308   -6.7715    7.2352 O.2      1 ZINC000019236156   -0.6200
29     N29     3.6785   -5.0291    6.2190 N.pl3    1 ZINC000019236156   -0.6600
30     C30     1.5218   -3.6726    4.1814 C.3      1 ZINC000019236156    0.0600
31     N31     0.0219   -0.6619    1.1449 N.ar     1 ZINC000019236156   -0.4800
32     H32     1.0042    1.8801    0.0026 H        1 ZINC000019236156    0.0800
33     H33    -0.5455    1.8639   -0.8728 H        1 ZINC000019236156    0.0700
34     H34    -0.5286    1.8543    0.9071 H        1 ZINC000019236156    0.0800
35     H35    -0.0069   -0.1359   -2.1356 H        1 ZINC000019236156    0.1300
36     H36     0.0278   -2.6220   -2.1261 H        1 ZINC000019236156    0.1300
37     H37     0.0549   -3.8028    0.0614 H        1 ZINC000019236156    0.1300
38     H38    -0.5418   -2.1166    3.2362 H        1 ZINC000019236156    0.0500
39     H39    -0.3685   -3.6824    2.4077 H        1 ZINC000019236156    0.0900
40     H40     2.2845   -0.8728    2.6014 H        1 ZINC000019236156    0.0800
41     H41     1.1738   -0.9268    4.0087 H        1 ZINC000019236156    0.0400
42     H42     4.0215   -2.0510    3.7869 H        1 ZINC000019236156    0.1000
43     H43     3.3239   -1.0359    5.0916 H        1 ZINC000019236156    0.0600
44     H44     7.5419   -6.5042    6.5007 H        1 ZINC000019236156    0.0500
45     H45     6.4864   -7.8133    5.9276 H        1 ZINC000019236156    0.0700
46     H46     8.6794   -7.4853    4.6345 H        1 ZINC000019236156    0.0900
47     H47     7.1923   -7.5081    3.6496 H        1 ZINC000019236156    0.0700
48     H48     9.0712   -3.5182    2.4431 H        1 ZINC000019236156    0.1000
49     H49     9.1747   -1.6690    4.0501 H        1 ZINC000019236156    0.0900
50     H50     8.6954   -2.9466    5.2496 H        1 ZINC000019236156    0.0700
51     H51    11.3963   -1.9444    5.0478 H        1 ZINC000019236156    0.0700
52     H52    11.0227   -3.6425    5.5751 H        1 ZINC000019236156    0.0800
53     H53    11.7368   -4.2203    3.3029 H        1 ZINC000019236156    0.0800
54     H54    11.3176   -2.5664    2.6785 H        1 ZINC000019236156    0.0800
55     H55     6.5586   -5.1005    2.5387 H        1 ZINC000019236156    0.0800
56     H56     7.2237   -3.7297    3.4574 H        1 ZINC000019236156    0.0900
57     H57     0.5690   -3.6796    4.7107 H        1 ZINC000019236156    0.0500
58     H58     1.7828   -4.6833    3.8677 H        1 ZINC000019236156    0.0800
@<TRIPOS>BOND
1     1     2     1
2     1     32    1
3     1     33    1
4     1     34    1
5     2     31    ar
6     2     3     ar
7     3     4     ar
8     3     35    1
9     4     5     ar
10    4     36    1
11    5     6     ar
12    5     37    1
13    6     7     1
14    6     31    ar
15    7     8     1
16    7     38    1
17    7     39    1
18    8     30    1
19    8     9     1
20    9     10    1
21    9     40    1
22    9     41    1
23    10    11    1
24    10    42    1
25    10    43    1
26    11    12    1
27    11    13    1
28    11    30    1
29    13    29    1
30    13    14    2
31    14    15    1
32    15    26    1
33    15    16    2
34    16    17    1
35    16    27    1
36    17    18    1
37    17    44    1
38    17    45    1
39    18    19    1
40    18    46    1
41    18    47    1
42    19    20    am
43    19    26    1
44    20    21    2
45    20    22    1
46    22    25    1
47    22    23    1
48    22    48    1
49    23    24    1
50    23    49    1
51    23    50    1
52    24    25    1
53    24    51    1
54    24    52    1
55    25    53    1
56    25    54    1
57    26    55    1
58    26    56    1
59    27    28    2
60    27    29    1
61    30    57    1
62    30    58    1
@<TRIPOS>SUBSTRUCTURE
1   ZINC000019236156 1     RESIDUE    1   A     ZIN   1
@<TRIPOS>MOLECULE
ZINC000019290939
53    57    1     0     0
SMALL
USER_CHARGES
@<TRIPOS>ATOM
1      C1      1.3768   -1.2184   -4.9281 C.3      1 ZINC000019290939    0.0800
2      N2      1.3561   -2.5693   -4.3618 N.pl3    1 ZINC000019290939   -0.2800
3      C3      1.6077   -3.7010   -5.0543 C.2      1 ZINC000019290939   -0.0100
4      C4      1.4930   -4.7349   -4.1881 C.2      1 ZINC000019290939   -0.1700
5      C5      1.1590   -4.1504   -2.9435 C.2      1 ZINC000019290939   -0.0200
6      C6      0.9253   -4.8642   -1.6716 C.2      1 ZINC000019290939    0.6200
7      O7      1.0149   -6.0759   -1.6293 O.2      1 ZINC000019290939   -0.5100
8      N8      0.6127   -4.1723   -0.5581 N.am     1 ZINC000019290939   -0.6200
9      C9      0.4656   -2.7081   -0.4693 C.3      1 ZINC000019290939    0.1000
10     C10    -0.4618   -2.4759    0.7496 C.3      1 ZINC000019290939   -0.1300
11     C11     0.0156   -3.5879    1.7206 C.3      1 ZINC000019290939   -0.1200
12     C12     0.3556   -4.7532    0.7678 C.3      1 ZINC000019290939    0.1900
13     H13    -0.4830   -5.4476    0.7175 H        1 ZINC000019290939    0.1300
14     C14     1.5871   -5.4716    1.2560 C.2      1 ZINC000019290939    0.4000
15     N15     1.4660   -6.4108    2.1521 N.2      1 ZINC000019290939   -0.5200
16     C16     2.5263   -7.0861    2.6212 C.2      1 ZINC000019290939    0.1700
17     C17     3.7632   -6.8014    2.1484 C.2      1 ZINC000019290939   -0.2300
18     C18     5.0057   -7.5221    2.5930 C.3      1 ZINC000019290939   -0.0700
19     C19     4.7810   -8.2143    3.9372 C.3      1 ZINC000019290939    0.1200
20     N20     3.4997   -8.9364    3.8638 N.am     1 ZINC000019290939   -0.6100
21     C21     3.4450  -10.2793    3.9646 C.2      1 ZINC000019290939    0.6000
22     O22     4.4731  -10.9302    3.9875 O.2      1 ZINC000019290939   -0.5200
23     C23     2.1472  -10.9558    4.0467 C.2      1 ZINC000019290939   -0.2800
24     C24     1.9198  -12.2721    3.7587 C.2      1 ZINC000019290939   -0.0500
25     C25     0.6066  -12.6450    3.9204 C.2      1 ZINC000019290939   -0.1500
26     C26    -0.2146  -11.6697    4.3268 C.2      1 ZINC000019290939   -0.2400
27     S27     0.6351  -10.2055    4.5389 S.3      1 ZINC000019290939    0.2200
28     C28     2.2852   -8.1350    3.6770 C.3      1 ZINC000019290939    0.1500
29     C29     3.8971   -5.7748    1.1828 C.2      1 ZINC000019290939    0.5300
30     O30     4.9952   -5.4775    0.7427 O.2      1 ZINC000019290939   -0.5300
31     N31     2.7912   -5.1344    0.7536 N.am     1 ZINC000019290939   -0.6200
32     N32     1.1013   -2.8473   -3.1337 N.2      1 ZINC000019290939   -0.2600
33     H33     2.3814   -0.8041   -4.8430 H        1 ZINC000019290939    0.0900
34     H34     1.0889   -1.2603   -5.9786 H        1 ZINC000019290939    0.1000
35     H35     0.6755   -0.5856   -4.3842 H        1 ZINC000019290939    0.1000
36     H36     1.8542   -3.7686   -6.1036 H        1 ZINC000019290939    0.1900
37     H37     1.6279   -5.7849   -4.4020 H        1 ZINC000019290939    0.1600
38     H38     1.4353   -2.2388   -0.3030 H        1 ZINC000019290939    0.0700
39     H39     0.0048   -2.3174   -1.3765 H        1 ZINC000019290939    0.1000
40     H40    -0.3021   -1.4869    1.1793 H        1 ZINC000019290939    0.0900
41     H41    -1.5077   -2.6175    0.4772 H        1 ZINC000019290939    0.0900
42     H42     0.8988   -3.2654    2.2719 H        1 ZINC000019290939    0.0800
43     H43    -0.7844   -3.8725    2.4041 H        1 ZINC000019290939    0.1000
44     H44     5.2739   -8.2688    1.8456 H        1 ZINC000019290939    0.0800
45     H45     5.8206   -6.8049    2.6908 H        1 ZINC000019290939    0.1000
46     H46     5.5908   -8.9182    4.1297 H        1 ZINC000019290939    0.1100
47     H47     4.7405   -7.4707    4.7330 H        1 ZINC000019290939    0.0800
48     H48     2.6946  -12.9517    3.4357 H        1 ZINC000019290939    0.1500
49     H49     0.2627  -13.6515    3.7329 H        1 ZINC000019290939    0.1500
50     H50    -1.2732  -11.7939    4.5012 H        1 ZINC000019290939    0.1700
51     H51     2.0227   -7.6498    4.6170 H        1 ZINC000019290939    0.1100
52     H52     1.4672   -8.7837    3.3636 H        1 ZINC000019290939    0.1200
53     H53     2.8627   -4.4293    0.0913 H        1 ZINC000019290939    0.4200
@<TRIPOS>BOND
1     1     2     1
2     1     33    1
3     1     34    1
4     1     35    1
5     2     32    1
6     2     3     1
7     3     4     2
8     3     36    1
9     4     5     1
10    4     37    1
11    5     6     1
12    5     32    2
13    6     7     2
14    6     8     am
15    8     12    1
16    8     9     1
17    9     10    1
18    9     38    1
19    9     39    1
20    10    11    1
21    10    40    1
22    10    41    1
23    11    12    1
24    11    42    1
25    11    43    1
26    12    13    1
27    12    14    1
28    14    31    1
29    14    15    2
30    15    16    1
31    16    28    1
32    16    17    2
33    17    18    1
34    17    29    1
35    18    19    1
36    18    44    1
37    18    45    1
38    19    20    1
39    19    46    1
40    19    47    1
41    20    21    am
42    20    28    1
43    21    22    2
44    21    23    1
45    23    27    1
46    23    24    2
47    24    25    1
48    24    48    1
49    25    26    2
50    25    49    1
51    26    27    1
52    26    50    1
53    28    51    1
54    28    52    1
55    29    30    2
56    29    31    am
57    31    53    1
@<TRIPOS>SUBSTRUCTURE
1   ZINC000019290939 1     RESIDUE    1   A     ZIN   1

@<TRIPOS>MOLECULE
ZINC000019290939
52    56    1     0     0
SMALL
USER_CHARGES
@<TRIPOS>ATOM
1      C1      3.3295    0.5078   -4.3164 C.3      1 ZINC000019290939    0.0900
2      N2      2.9543   -0.8214   -3.8277 N.pl3    1 ZINC000019290939   -0.2900
3      C3      2.8634   -1.9290   -4.5947 C.2      1 ZINC000019290939   -0.0200
4      C4      2.4943   -2.9486   -3.7845 C.2      1 ZINC000019290939   -0.1800
5      C5      2.3718   -2.3810   -2.4941 C.2      1 ZINC000019290939    0.0000
6      C6      1.9887   -3.0885   -1.2554 C.2      1 ZINC000019290939    0.6100
7      O7      1.7421   -4.2786   -1.2866 O.2      1 ZINC000019290939   -0.5200
8      N8      1.9124   -2.4148   -0.0906 N.am     1 ZINC000019290939   -0.5900
9      C9      2.1773   -0.9756    0.0885 C.3      1 ZINC000019290939    0.1100
10     C10     1.3867   -0.5823    1.3612 C.3      1 ZINC000019290939   -0.1300
11     C11     1.5680   -1.8457    2.2435 C.3      1 ZINC000019290939   -0.1200
12     C12     1.5451   -2.9921    1.2107 C.3      1 ZINC000019290939    0.2200
13     H13     0.5465   -3.4260    1.1607 H        1 ZINC000019290939    0.0900
14     C14     2.5450   -4.0509    1.5980 C.2      1 ZINC000019290939    0.3400
15     N15     2.1488   -5.2859    1.7308 N.2      1 ZINC000019290939   -0.6100
16     C16     2.9945   -6.2706    2.0707 C.2      1 ZINC000019290939    0.1600
17     C17     4.3038   -5.9880    2.2723 C.2      1 ZINC000019290939   -0.3200
18     C18     5.3299   -7.0277    2.6285 C.3      1 ZINC000019290939   -0.0500
19     C19     4.6620   -8.2750    3.2068 C.3      1 ZINC000019290939    0.1200
20     N20     3.5320   -8.6283    2.3310 N.am     1 ZINC000019290939   -0.6000
21     C21     3.5076   -9.7931    1.6535 C.2      1 ZINC000019290939    0.5900
22     O22     4.4855  -10.5176    1.6534 O.2      1 ZINC000019290939   -0.5400
23     C23     2.3033  -10.1874    0.9167 C.2      1 ZINC000019290939   -0.2700
24     C24     2.2595  -11.0972   -0.1019 C.2      1 ZINC000019290939   -0.0600
25     C25     0.9973  -11.2774   -0.6160 C.2      1 ZINC000019290939   -0.1500
26     C26     0.0393  -10.5418   -0.0399 C.2      1 ZINC000019290939   -0.2500
27     S27     0.6824   -9.5710    1.2072 S.3      1 ZINC000019290939    0.2400
28     C28     2.4337   -7.6613    2.2263 C.3      1 ZINC000019290939    0.1600
29     C29     4.7331   -4.6456    2.1382 C.2      1 ZINC000019290939    0.4900
30     O30     5.9008   -4.3468    2.3260 O.2      1 ZINC000019290939   -0.6200
31     N31     3.8321   -3.7035    1.7949 N.pl3    1 ZINC000019290939   -0.6500
32     N32     2.6698   -1.1020   -2.6067 N.2      1 ZINC000019290939   -0.2600
33     H33     4.4114    0.6252   -4.2555 H        1 ZINC000019290939    0.0800
34     H34     3.0098    0.6175   -5.3527 H        1 ZINC000019290939    0.0900
35     H35     2.8463    1.2696   -3.7045 H        1 ZINC000019290939    0.0900
36     H36     3.0502   -1.9899   -5.6567 H        1 ZINC000019290939    0.1800
37     H37     2.3281   -3.9784   -4.0641 H        1 ZINC000019290939    0.1600
38     H38     3.2432   -0.8015    0.2350 H        1 ZINC000019290939    0.0700
39     H39     1.8149   -0.4133   -0.7721 H        1 ZINC000019290939    0.0900
40     H40     1.8255    0.2938    1.8386 H        1 ZINC000019290939    0.0800
41     H41     0.3346   -0.4141    1.1313 H        1 ZINC000019290939    0.0700
42     H42     2.5221   -1.8149    2.7697 H        1 ZINC000019290939    0.0900
43     H43     0.7415   -1.9468    2.9468 H        1 ZINC000019290939    0.0800
44     H44     5.8880   -7.3022    1.7334 H        1 ZINC000019290939    0.0600
45     H45     6.0177   -6.6146    3.3663 H        1 ZINC000019290939    0.0700
46     H46     5.3774   -9.0969    3.2358 H        1 ZINC000019290939    0.0900
47     H47     4.2979   -8.0660    4.2127 H        1 ZINC000019290939    0.0700
48     H48     3.1299  -11.6221   -0.4670 H        1 ZINC000019290939    0.1500
49     H49     0.7938  -11.9623   -1.4259 H        1 ZINC000019290939    0.1400
50     H50    -1.0025  -10.5629   -0.3237 H        1 ZINC000019290939    0.1600
51     H51     1.8228   -7.7073    3.1278 H        1 ZINC000019290939    0.0800
52     H52     1.8187   -7.9035    1.3595 H        1 ZINC000019290939    0.1000
@<TRIPOS>BOND
1     1     2     1
2     1     33    1
3     1     34    1
4     1     35    1
5     2     32    1
6     2     3     1
7     3     4     2
8     3     36    1
9     4     5     1
10    4     37    1
11    5     6     1
12    5     32    2
13    6     7     2
14    6     8     am
15    8     12    1
16    8     9     1
17    9     10    1
18    9     38    1
19    9     39    1
20    10    11    1
21    10    40    1
22    10    41    1
23    11    12    1
24    11    42    1
25    11    43    1
26    12    13    1
27    12    14    1
28    14    31    1
29    14    15    2
30    15    16    1
31    16    28    1
32    16    17    2
33    17    18    1
34    17    29    1
35    18    19    1
36    18    44    1
37    18    45    1
38    19    20    1
39    19    46    1
40    19    47    1
41    20    21    am
42    20    28    1
43    21    22    2
44    21    23    1
45    23    27    1
46    23    24    2
47    24    25    1
48    24    48    1
49    25    26    2
50    25    49    1
51    26    27    1
52    26    50    1
53    28    51    1
54    28    52    1
55    29    30    2
56    29    31    1
@<TRIPOS>SUBSTRUCTURE
1   ZINC000019290939 1     RESIDUE    1   A     ZIN   1
@<TRIPOS>MOLECULE
ZINC000019572602
53    56    1     0     0
SMALL
USER_CHARGES
@<TRIPOS>ATOM
1      C1      4.7531   -0.4026    1.1574 C.3      1 ZINC000019572602   -0.6700
2      S2      2.9402   -0.4370    1.2125 S.o2     1 ZINC000019572602    2.6100
3      O3      2.4644   -1.7739    1.1381 O.2      1 ZINC000019572602   -0.9500
4      O4      2.4543    0.4596    2.2020 O.2      1 ZINC000019572602   -0.9500
5      N5      2.4703    0.2441   -0.2219 N.am     1 ZINC000019572602   -1.0000
6      C6      2.2533    1.6954   -0.3476 C.3      1 ZINC000019572602    0.1200
7      C7      3.2754    2.2378   -1.3457 C.3      1 ZINC000019572602   -0.0900
8      C8      3.3220    1.3821   -2.5835 C.2      1 ZINC000019572602    0.2100
9      C9      2.8695    0.1058   -2.6154 C.2      1 ZINC000019572602   -0.2700
10     C10     2.2584   -0.5722   -1.4230 C.3      1 ZINC000019572602    0.2000
11     C11     2.9774   -0.6257   -3.8210 C.2      1 ZINC000019572602    0.5400
12     O12     2.5909   -1.7810   -3.8821 O.2      1 ZINC000019572602   -0.5400
13     N13     3.5143   -0.0242   -4.9021 N.am     1 ZINC000019572602   -0.6100
14     C14     3.9335    1.2534   -4.8129 C.2      1 ZINC000019572602    0.4400
15     C15     4.5241    1.9220   -6.0274 C.3      1 ZINC000019572602    0.1900
16     H16     4.9341    2.8924   -5.7473 H        1 ZINC000019572602    0.1200
17     C17     5.6364    1.0428   -6.6077 C.3      1 ZINC000019572602   -0.1300
18     C18     6.1366    1.6578   -7.9169 C.3      1 ZINC000019572602   -0.1200
19     C19     4.9886    1.7140   -8.9273 C.3      1 ZINC000019572602   -0.1400
20     C20     3.8690    2.6008   -8.3734 C.3      1 ZINC000019572602    0.1100
21     N21     3.4809    2.1035   -7.0460 N.am     1 ZINC000019572602   -0.6100
22     C22     2.1937    1.8147   -6.7703 C.2      1 ZINC000019572602    0.5100
23     O23     1.8695    1.5056   -5.6432 O.2      1 ZINC000019572602   -0.5000
24     C24     1.1571    1.8759   -7.8624 C.3      1 ZINC000019572602   -0.0700
25     C25    -0.1912    1.5115   -7.2963 C.2      1 ZINC000019572602   -0.0900
26     C26    -0.6399    0.2558   -7.2635 C.2      1 ZINC000019572602   -0.2000
27     S27    -2.2412    0.2204   -6.5367 S.3      1 ZINC000019572602    0.1100
28     C28    -2.2102    1.9646   -6.3117 C.2      1 ZINC000019572602   -0.2100
29     C29    -1.0553    2.4537   -6.7657 C.2      1 ZINC000019572602   -0.1200
30     N30     3.8390    1.9232   -3.6990 N.2      1 ZINC000019572602   -0.5400
31     H31     5.1016   -0.9784    0.3000 H        1 ZINC000019572602    0.1300
32     H32     5.0943    0.6286    1.0655 H        1 ZINC000019572602    0.1300
33     H33     5.1527   -0.8372    2.0736 H        1 ZINC000019572602    0.1300
34     H34     1.2441    1.8872   -0.7120 H        1 ZINC000019572602    0.0800
35     H35     2.3936    2.1746    0.6213 H        1 ZINC000019572602    0.1100
36     H36     3.0002    3.2553   -1.6234 H        1 ZINC000019572602    0.1000
37     H37     4.2607    2.2483   -0.8799 H        1 ZINC000019572602    0.0900
38     H38     2.7185   -1.5509   -1.2868 H        1 ZINC000019572602    0.1000
39     H39     1.1874   -0.6947   -1.5846 H        1 ZINC000019572602    0.0800
40     H40     3.5979   -0.5081   -5.7386 H        1 ZINC000019572602    0.4100
41     H41     6.4601    0.9815   -5.8965 H        1 ZINC000019572602    0.0900
42     H42     5.2467    0.0433   -6.8008 H        1 ZINC000019572602    0.0700
43     H43     6.5033    2.6666   -7.7274 H        1 ZINC000019572602    0.0700
44     H44     6.9449    1.0473   -8.3193 H        1 ZINC000019572602    0.0800
45     H45     5.3512    2.1305   -9.8671 H        1 ZINC000019572602    0.0900
46     H46     4.6050    0.7082   -9.0986 H        1 ZINC000019572602    0.0700
47     H47     4.2250    3.6274   -8.2868 H        1 ZINC000019572602    0.0800
48     H48     3.0095    2.5651   -9.0427 H        1 ZINC000019572602    0.0900
49     H49     1.1187    2.8858   -8.2708 H        1 ZINC000019572602    0.1100
50     H50     1.4208    1.1739   -8.6534 H        1 ZINC000019572602    0.1100
51     H51    -0.1023   -0.6072   -7.6277 H        1 ZINC000019572602    0.1600
52     H52    -3.0031    2.5494   -5.8692 H        1 ZINC000019572602    0.1600
53     H53    -0.8160    3.5063   -6.7295 H        1 ZINC000019572602    0.1400
@<TRIPOS>BOND
1     1     2     1
2     1     31    1
3     1     32    1
4     1     33    1
5     2     3     2
6     2     4     2
7     2     5     am
8     5     10    1
9     5     6     1
10    6     7     1
11    6     34    1
12    6     35    1
13    7     8     1
14    7     36    1
15    7     37    1
16    8     30    1
17    8     9     2
18    9     10    1
19    9     11    1
20    10    38    1
21    10    39    1
22    11    12    2
23    11    13    am
24    13    14    1
25    13    40    1
26    14    15    1
27    14    30    2
28    15    16    1
29    15    21    1
30    15    17    1
31    17    18    1
32    17    41    1
33    17    42    1
34    18    19    1
35    18    43    1
36    18    44    1
37    19    20    1
38    19    45    1
39    19    46    1
40    20    21    1
41    20    47    1
42    20    48    1
43    21    22    am
44    22    23    2
45    22    24    1
46    24    25    1
47    24    49    1
48    24    50    1
49    25    29    1
50    25    26    2
51    26    27    1
52    26    51    1
53    27    28    1
54    28    29    2
55    28    52    1
56    29    53    1
@<TRIPOS>SUBSTRUCTURE
1   ZINC000019572602 1     RESIDUE    1   A     ZIN   1

@<TRIPOS>MOLECULE
ZINC000019572602
52    55    1     0     0
SMALL
USER_CHARGES
@<TRIPOS>ATOM
1      C1     -1.2331    0.0169   -1.5199 C.3      1 ZINC000019572602   -0.6700
2      S2     -0.2296   -1.3058   -0.7891 S.o2     1 ZINC000019572602    2.6100
3      O3      0.2247   -0.9306    0.5040 O.2      1 ZINC000019572602   -0.9600
4      O4     -0.8333   -2.5722   -1.0146 O.2      1 ZINC000019572602   -0.9700
5      N5      1.1454   -1.3388   -1.7114 N.am     1 ZINC000019572602   -1.0000
6      C6      1.2428   -2.1836   -2.9138 C.3      1 ZINC000019572602    0.1300
7      C7      1.4156   -1.2630   -4.1212 C.3      1 ZINC000019572602   -0.0800
8      C8      2.4706   -0.2224   -3.8550 C.2      1 ZINC000019572602    0.1900
9      C9      2.8715    0.1191   -2.6071 C.2      1 ZINC000019572602   -0.3600
10     C10     2.3160   -0.5228   -1.3684 C.3      1 ZINC000019572602    0.2200
11     C11     3.8539    1.1256   -2.4583 C.2      1 ZINC000019572602    0.5100
12     O12     4.2297    1.4664   -1.3490 O.2      1 ZINC000019572602   -0.6300
13     N13     4.3686    1.7020   -3.5636 N.pl3    1 ZINC000019572602   -0.6400
14     C14     3.9402    1.3094   -4.7795 C.2      1 ZINC000019572602    0.3800
15     C15     4.5263    1.9514   -6.0104 C.3      1 ZINC000019572602    0.2300
16     H16     3.9771    1.6205   -6.8919 H        1 ZINC000019572602    0.0800
17     C17     4.4321    3.4756   -5.8890 C.3      1 ZINC000019572602   -0.1200
18     C18     5.1519    4.1233   -7.0741 C.3      1 ZINC000019572602   -0.1200
19     C19     6.6301    3.7275   -7.0535 C.3      1 ZINC000019572602   -0.1400
20     C20     6.7492    2.2062   -7.1882 C.3      1 ZINC000019572602    0.1100
21     N21     5.9395    1.5709   -6.1391 N.am     1 ZINC000019572602   -0.6100
22     C22     6.4844    0.6605   -5.3079 C.2      1 ZINC000019572602    0.5100
23     O23     5.7837    0.0659   -4.5165 O.2      1 ZINC000019572602   -0.4700
24     C24     7.9644    0.3816   -5.3618 C.3      1 ZINC000019572602   -0.0700
25     C25     8.3154   -0.6677   -4.3386 C.2      1 ZINC000019572602   -0.0900
26     C26     8.6567   -0.3623   -3.0858 C.2      1 ZINC000019572602   -0.1800
27     S27     8.9950   -1.8378   -2.1903 S.3      1 ZINC000019572602    0.0900
28     C28     8.6435   -2.8153   -3.6096 C.2      1 ZINC000019572602   -0.2200
29     C29     8.3025   -2.0217   -4.6261 C.2      1 ZINC000019572602   -0.1200
30     N30     3.0301    0.3863   -4.9137 N.2      1 ZINC000019572602   -0.6300
31     H31    -0.6862    0.9584   -1.4688 H        1 ZINC000019572602    0.1300
32     H32    -1.4474   -0.2227   -2.5614 H        1 ZINC000019572602    0.1200
33     H33    -2.1688    0.1099   -0.9685 H        1 ZINC000019572602    0.1200
34     H34     2.1035   -2.8471   -2.8297 H        1 ZINC000019572602    0.0700
35     H35     0.3321   -2.7720   -3.0259 H        1 ZINC000019572602    0.0900
36     H36     1.7089   -1.8576   -4.9864 H        1 ZINC000019572602    0.0800
37     H37     0.4683   -0.7671   -4.3324 H        1 ZINC000019572602    0.0700
38     H38     2.0277    0.2510   -0.6569 H        1 ZINC000019572602    0.0800
39     H39     3.0757   -1.1628   -0.9196 H        1 ZINC000019572602    0.0600
40     H40     3.3845    3.7767   -5.8909 H        1 ZINC000019572602    0.0700
41     H41     4.9015    3.7962   -4.9589 H        1 ZINC000019572602    0.0800
42     H42     4.6978    3.7830   -8.0048 H        1 ZINC000019572602    0.0600
43     H43     5.0652    5.2075   -7.0032 H        1 ZINC000019572602    0.0600
44     H44     7.1469    4.2079   -7.8843 H        1 ZINC000019572602    0.0700
45     H45     7.0788    4.0457   -6.1125 H        1 ZINC000019572602    0.0700
46     H46     6.3834    1.8962   -8.1670 H        1 ZINC000019572602    0.0600
47     H47     7.7920    1.9098   -7.0749 H        1 ZINC000019572602    0.0800
48     H48     8.2305    0.0229   -6.3561 H        1 ZINC000019572602    0.0900
49     H49     8.5148    1.2974   -5.1465 H        1 ZINC000019572602    0.1000
50     H50     8.7165    0.6380   -2.6830 H        1 ZINC000019572602    0.1600
51     H51     8.6918   -3.8935   -3.6506 H        1 ZINC000019572602    0.1600
52     H52     8.0436   -2.4060   -5.6016 H        1 ZINC000019572602    0.1300
@<TRIPOS>BOND
1     1     2     1
2     1     31    1
3     1     32    1
4     1     33    1
5     2     3     2
6     2     4     2
7     2     5     am
8     5     10    1
9     5     6     1
10    6     7     1
11    6     34    1
12    6     35    1
13    7     8     1
14    7     36    1
15    7     37    1
16    8     30    1
17    8     9     2
18    9     10    1
19    9     11    1
20    10    38    1
21    10    39    1
22    11    12    2
23    11    13    1
24    13    14    1
25    14    15    1
26    14    30    2
27    15    16    1
28    15    21    1
29    15    17    1
30    17    18    1
31    17    40    1
32    17    41    1
33    18    19    1
34    18    42    1
35    18    43    1
36    19    20    1
37    19    44    1
38    19    45    1
39    20    21    1
40    20    46    1
41    20    47    1
42    21    22    am
43    22    23    2
44    22    24    1
45    24    25    1
46    24    48    1
47    24    49    1
48    25    29    1
49    25    26    2
50    26    27    1
51    26    50    1
52    27    28    1
53    28    29    2
54    28    51    1
55    29    52    1
@<TRIPOS>SUBSTRUCTURE
1   ZINC000019572602 1     RESIDUE    1   A     ZIN   1
@<TRIPOS>MOLECULE
ZINC000019572863
57    60    1     0     0
SMALL
USER_CHARGES
@<TRIPOS>ATOM
1      C1      0.3523   -3.3902   -3.0854 C.3      1 ZINC000019572863   -0.6700
2      S2      0.1595   -2.9967   -4.8456 S.o2     1 ZINC000019572863    2.6100
3      O3      0.9963   -3.8288   -5.6372 O.2      1 ZINC000019572863   -0.9500
4      O4     -1.2125   -2.8176   -5.1692 O.2      1 ZINC000019572863   -0.9500
5      N5      0.8174   -1.4854   -5.0056 N.am     1 ZINC000019572863   -1.0000
6      C6      0.0004   -0.2720   -4.8357 C.3      1 ZINC000019572863    0.1200
7      C7      0.5436    0.4918   -3.6281 C.3      1 ZINC000019572863   -0.0700
8      C8      2.0420    0.5986   -3.6927 C.2      1 ZINC000019572863   -0.2400
9      C9      2.8162   -0.2168   -4.4480 C.2      1 ZINC000019572863    0.1700
10     C10     2.2393   -1.3007   -5.3164 C.3      1 ZINC000019572863    0.1800
11     N11     4.1495   -0.0668   -4.4314 N.2      1 ZINC000019572863   -0.5300
12     C12     4.7315    0.8557   -3.7172 C.2      1 ZINC000019572863    0.4400
13     C13     6.2338    0.9716   -3.7429 C.3      1 ZINC000019572863    0.1900
14     H14     6.6386    0.3068   -4.5060 H        1 ZINC000019572863    0.1200
15     C15     6.6321    2.4170   -4.0573 C.3      1 ZINC000019572863   -0.1300
16     C16     8.1517    2.5592   -3.9451 C.3      1 ZINC000019572863   -0.1200
17     C17     8.5917    2.2371   -2.5151 C.3      1 ZINC000019572863   -0.1400
18     C18     8.2156    0.7896   -2.1832 C.3      1 ZINC000019572863    0.1100
19     N19     6.7788    0.6030   -2.4292 N.am     1 ZINC000019572863   -0.6100
20     C20     5.9759    0.1081   -1.4665 C.2      1 ZINC000019572863    0.5100
21     O21     4.8146   -0.1395   -1.7134 O.2      1 ZINC000019572863   -0.5100
22     C22     6.5211   -0.1377   -0.0832 C.3      1 ZINC000019572863   -0.1300
23     C23     5.4120   -0.6967    0.8102 C.3      1 ZINC000019572863   -0.0500
24     H24     4.5442   -0.0374    0.7945 H        1 ZINC000019572863    0.0900
25     C25     5.0251   -2.0868    0.3616 C.2      1 ZINC000019572863   -0.1500
26     C26     4.9089   -2.8942    1.3806 C.2      1 ZINC000019572863   -0.1700
27     C27     5.1988   -2.1772    2.6787 C.3      1 ZINC000019572863   -0.1000
28     C28     5.9256   -0.8767    2.2576 C.3      1 ZINC000019572863   -0.1200
29     N29     4.0163    1.7079   -2.9570 N.am     1 ZINC000019572863   -0.6100
30     C30     2.6726    1.6050   -2.9220 C.2      1 ZINC000019572863    0.5400
31     O31     2.0104    2.3674   -2.2378 O.2      1 ZINC000019572863   -0.5400
32     H32     1.4104   -3.3773   -2.8240 H        1 ZINC000019572863    0.1300
33     H33    -0.1788   -2.6498   -2.4872 H        1 ZINC000019572863    0.1300
34     H34    -0.0588   -4.3801   -2.8872 H        1 ZINC000019572863    0.1300
35     H35     0.0723    0.3495   -5.7283 H        1 ZINC000019572863    0.0800
36     H36    -1.0392   -0.5485   -4.6603 H        1 ZINC000019572863    0.1100
37     H37     0.1130    1.4930   -3.6138 H        1 ZINC000019572863    0.0900
38     H38     0.2605   -0.0325   -2.7154 H        1 ZINC000019572863    0.0800
39     H39     2.7766   -2.2323   -5.1387 H        1 ZINC000019572863    0.1100
40     H40     2.3408   -1.0184   -6.3643 H        1 ZINC000019572863    0.1000
41     H41     6.3169    2.6692   -5.0699 H        1 ZINC000019572863    0.0900
42     H42     6.1504    3.0897   -3.3477 H        1 ZINC000019572863    0.0700
43     H43     8.6332    1.8685   -4.6374 H        1 ZINC000019572863    0.0700
44     H44     8.4402    3.5808   -4.1923 H        1 ZINC000019572863    0.0800
45     H45     9.6712    2.3612   -2.4299 H        1 ZINC000019572863    0.0800
46     H46     8.0915    2.9115   -1.8200 H        1 ZINC000019572863    0.0700
47     H47     8.7841    0.1097   -2.8177 H        1 ZINC000019572863    0.0800
48     H48     8.4366    0.5857   -1.1355 H        1 ZINC000019572863    0.0900
49     H49     7.3400   -0.8550   -0.1376 H        1 ZINC000019572863    0.1000
50     H50     6.8867    0.8001    0.3351 H        1 ZINC000019572863    0.1000
51     H51     4.8654   -2.3745   -0.6670 H        1 ZINC000019572863    0.1200
52     H52     4.6403   -3.9376    1.3058 H        1 ZINC000019572863    0.1200
53     H53     4.2698   -1.9401    3.1973 H        1 ZINC000019572863    0.0700
54     H54     5.8440   -2.7854    3.3126 H        1 ZINC000019572863    0.0700
55     H55     7.0073   -1.0102    2.2738 H        1 ZINC000019572863    0.0700
56     H56     5.6268   -0.0396    2.8886 H        1 ZINC000019572863    0.0700
57     H57     4.4662    2.3920   -2.4369 H        1 ZINC000019572863    0.4100
@<TRIPOS>BOND
1     1     2     1
2     1     32    1
3     1     33    1
4     1     34    1
5     2     3     2
6     2     4     2
7     2     5     am
8     5     10    1
9     5     6     1
10    6     7     1
11    6     35    1
12    6     36    1
13    7     8     1
14    7     37    1
15    7     38    1
16    8     30    1
17    8     9     2
18    9     10    1
19    9     11    1
20    10    39    1
21    10    40    1
22    11    12    2
23    12    13    1
24    12    29    1
25    13    14    1
26    13    19    1
27    13    15    1
28    15    16    1
29    15    41    1
30    15    42    1
31    16    17    1
32    16    43    1
33    16    44    1
34    17    18    1
35    17    45    1
36    17    46    1
37    18    19    1
38    18    47    1
39    18    48    1
40    19    20    am
41    20    21    2
42    20    22    1
43    22    23    1
44    22    49    1
45    22    50    1
46    23    24    1
47    23    28    1
48    23    25    1
49    25    26    2
50    25    51    1
51    26    27    1
52    26    52    1
53    27    28    1
54    27    53    1
55    27    54    1
56    28    55    1
57    28    56    1
58    29    30    am
59    29    57    1
60    30    31    2
@<TRIPOS>SUBSTRUCTURE
1   ZINC000019572863 1     RESIDUE    1   A     ZIN   1

@<TRIPOS>MOLECULE
ZINC000019572863
56    59    1     0     0
SMALL
USER_CHARGES
@<TRIPOS>ATOM
1      C1     -0.2804    3.9976   -2.2582 C.3      1 ZINC000019572863   -0.6700
2      S2     -0.2920    2.7531   -0.9386 S.o2     1 ZINC000019572863    2.6200
3      O3      0.4569    3.2063    0.1808 O.2      1 ZINC000019572863   -0.9600
4      O4     -1.5951    2.2099   -0.7768 O.2      1 ZINC000019572863   -0.9600
5      N5      0.6010    1.4980   -1.5464 N.am     1 ZINC000019572863   -0.9900
6      C6     -0.0279    0.4138   -2.3197 C.3      1 ZINC000019572863    0.1200
7      C7      0.5451    0.4571   -3.7362 C.3      1 ZINC000019572863   -0.0500
8      C8      2.0429    0.5847   -3.7036 C.2      1 ZINC000019572863   -0.3200
9      C9      2.7303    1.0313   -2.6252 C.2      1 ZINC000019572863    0.1600
10     C10     2.0519    1.4238   -1.3417 C.3      1 ZINC000019572863    0.1900
11     N11     4.0666    1.1351   -2.6878 N.2      1 ZINC000019572863   -0.6300
12     C12     4.7354    0.8038   -3.7568 C.2      1 ZINC000019572863    0.3800
13     C13     6.2358    0.9438   -3.7623 C.3      1 ZINC000019572863    0.2300
14     H14     6.5827    1.1986   -2.7609 H        1 ZINC000019572863    0.0800
15     C15     6.8732   -0.3767   -4.2060 C.3      1 ZINC000019572863   -0.1200
16     C16     8.3856   -0.1877   -4.3437 C.3      1 ZINC000019572863   -0.1200
17     C17     8.6741    0.8705   -5.4110 C.3      1 ZINC000019572863   -0.1300
18     C18     8.0572    2.2052   -4.9809 C.3      1 ZINC000019572863    0.1100
19     N19     6.6284    2.0014   -4.7036 N.am     1 ZINC000019572863   -0.6100
20     C20     5.6962    2.7667   -5.3051 C.2      1 ZINC000019572863    0.5100
21     O21     4.5298    2.6615   -4.9900 O.2      1 ZINC000019572863   -0.4800
22     C22     6.1032    3.7533   -6.3691 C.3      1 ZINC000019572863   -0.1200
23     C23     4.8640    4.4877   -6.8845 C.3      1 ZINC000019572863   -0.0600
24     H24     4.1111    3.7733   -7.2174 H        1 ZINC000019572863    0.0900
25     C25     4.2984    5.3852   -5.8084 C.2      1 ZINC000019572863   -0.1300
26     C26     3.9912    6.5592   -6.2890 C.2      1 ZINC000019572863   -0.1900
27     C27     4.3006    6.6405   -7.7658 C.3      1 ZINC000019572863   -0.1000
28     C28     5.2456    5.4447   -8.0376 C.3      1 ZINC000019572863   -0.1200
29     N29     4.1115    0.3383   -4.8568 N.pl3    1 ZINC000019572863   -0.6400
30     C30     2.7688    0.2184   -4.8626 C.2      1 ZINC000019572863    0.5000
31     O31     2.1884   -0.1998   -5.8506 O.2      1 ZINC000019572863   -0.6400
32     H32     0.7471    4.2940   -2.4692 H        1 ZINC000019572863    0.1300
33     H33    -0.7293    3.5771   -3.1581 H        1 ZINC000019572863    0.1300
34     H34    -0.8521    4.8696   -1.9404 H        1 ZINC000019572863    0.1200
35     H35     0.1988   -0.5477   -1.8591 H        1 ZINC000019572863    0.0700
36     H36    -1.1071    0.5625   -2.3534 H        1 ZINC000019572863    0.0900
37     H37     0.2747   -0.4595   -4.2605 H        1 ZINC000019572863    0.0700
38     H38     0.1240    1.3107   -4.2674 H        1 ZINC000019572863    0.0500
39     H39     2.4255    2.3947   -1.0162 H        1 ZINC000019572863    0.0900
40     H40     2.2656    0.6783   -0.5758 H        1 ZINC000019572863    0.0800
41     H41     6.6690   -1.1471   -3.4624 H        1 ZINC000019572863    0.0700
42     H42     6.4553   -0.6777   -5.1666 H        1 ZINC000019572863    0.0800
43     H43     8.7993    0.1372   -3.3890 H        1 ZINC000019572863    0.0600
44     H44     8.8446   -1.1323   -4.6355 H        1 ZINC000019572863    0.0600
45     H45     9.7518    0.9878   -5.5250 H        1 ZINC000019572863    0.0700
46     H46     8.2392    0.5578   -6.3603 H        1 ZINC000019572863    0.0700
47     H47     8.5545    2.5642   -4.0799 H        1 ZINC000019572863    0.0600
48     H48     8.1736    2.9362   -5.7810 H        1 ZINC000019572863    0.0800
49     H49     6.8036    4.4741   -5.9474 H        1 ZINC000019572863    0.0800
50     H50     6.5801    3.2227   -7.1932 H        1 ZINC000019572863    0.0900
51     H51     4.1655    5.0934   -4.7771 H        1 ZINC000019572863    0.1200
52     H52     3.5707    7.3664   -5.7076 H        1 ZINC000019572863    0.1200
53     H53     3.3867    6.5408   -8.3513 H        1 ZINC000019572863    0.0700
54     H54     4.8005    7.5809   -7.9978 H        1 ZINC000019572863    0.0600
55     H55     6.2903    5.7470   -7.9638 H        1 ZINC000019572863    0.0700
56     H56     5.0379    4.9946   -9.0083 H        1 ZINC000019572863    0.0700
@<TRIPOS>BOND
1     1     2     1
2     1     32    1
3     1     33    1
4     1     34    1
5     2     3     2
6     2     4     2
7     2     5     am
8     5     10    1
9     5     6     1
10    6     7     1
11    6     35    1
12    6     36    1
13    7     8     1
14    7     37    1
15    7     38    1
16    8     30    1
17    8     9     2
18    9     10    1
19    9     11    1
20    10    39    1
21    10    40    1
22    11    12    2
23    12    13    1
24    12    29    1
25    13    14    1
26    13    19    1
27    13    15    1
28    15    16    1
29    15    41    1
30    15    42    1
31    16    17    1
32    16    43    1
33    16    44    1
34    17    18    1
35    17    45    1
36    17    46    1
37    18    19    1
38    18    47    1
39    18    48    1
40    19    20    am
41    20    21    2
42    20    22    1
43    22    23    1
44    22    49    1
45    22    50    1
46    23    24    1
47    23    28    1
48    23    25    1
49    25    26    2
50    25    51    1
51    26    27    1
52    26    52    1
53    27    28    1
54    27    53    1
55    27    54    1
56    28    55    1
57    28    56    1
58    29    30    1
59    30    31    2
@<TRIPOS>SUBSTRUCTURE
1   ZINC000019572863 1     RESIDUE    1   A     ZIN   1
@<TRIPOS>MOLECULE
ZINC000020869097
47    50    1     0     0
SMALL
USER_CHARGES
@<TRIPOS>ATOM
1      C1     -0.0225    1.8097    0.0120 C.3      1 ZINC000020869097   -0.6700
2      S2      0.0021   -0.0041    0.0020 S.o2     1 ZINC000020869097    2.6100
3      O3      0.8448   -0.4970    1.0346 O.2      1 ZINC000020869097   -0.9500
4      O4     -1.3093   -0.5195   -0.1821 O.2      1 ZINC000020869097   -0.9500
5      N5      0.7961   -0.3989   -1.3965 N.am     1 ZINC000020869097   -1.0000
6      C6      0.0550   -0.5829   -2.6518 C.3      1 ZINC000020869097    0.1200
7      C7      0.6756    0.3146   -3.7270 C.3      1 ZINC000020869097   -0.1200
8      C8      2.1732    0.0171   -3.8319 C.3      1 ZINC000020869097   -0.0400
9      C9      2.7808    0.8741   -4.9124 C.2      1 ZINC000020869097    0.4500
10     N10     2.1984    1.9973   -5.2167 N.2      1 ZINC000020869097   -0.5100
11     C11     2.6817    2.8105   -6.1668 C.2      1 ZINC000020869097    0.3100
12     C12     3.8458    2.4497   -6.8569 C.2      1 ZINC000020869097   -0.1600
13     N13     4.1201    3.4163   -7.7441 N.2      1 ZINC000020869097   -0.1600
14     N14     3.2327    4.3467   -7.6696 N.2      1 ZINC000020869097   -0.0300
15     N15     2.2945    4.0110   -6.6818 N.pl3    1 ZINC000020869097   -0.3500
16     C16     1.1257    4.7984   -6.2818 C.3      1 ZINC000020869097    0.1700
17     C17    -0.0609    4.3973   -7.1197 C.ar     1 ZINC000020869097   -0.1700
18     C18    -0.3751    5.1117   -8.2599 C.ar     1 ZINC000020869097   -0.0600
19     C19    -1.4638    4.7439   -9.0288 C.ar     1 ZINC000020869097   -0.1300
20     C20    -2.2393    3.6616   -8.6578 C.ar     1 ZINC000020869097   -0.0700
21     C21    -1.9272    2.9457   -7.5173 C.ar     1 ZINC000020869097   -0.1600
22     C22    -0.8335    3.3090   -6.7503 C.ar     1 ZINC000020869097    0.1300
23     F23    -0.5275    2.6100   -5.6354 F        1 ZINC000020869097   -0.1200
24     C24     4.4863    1.1814   -6.5001 C.2      1 ZINC000020869097    0.5900
25     O25     5.5015    0.8074   -7.0605 O.2      1 ZINC000020869097   -0.4900
26     N26     3.9136    0.4436   -5.5212 N.am     1 ZINC000020869097   -0.6400
27     C27     2.8511    0.3255   -2.4949 C.3      1 ZINC000020869097   -0.1300
28     C28     2.2558   -0.5658   -1.4070 C.3      1 ZINC000020869097    0.1200
29     H29     1.0001    2.1870    0.0043 H        1 ZINC000020869097    0.1300
30     H30    -0.5497    2.1708   -0.8711 H        1 ZINC000020869097    0.1300
31     H31    -0.5327    2.1613    0.9088 H        1 ZINC000020869097    0.1300
32     H32     0.1188   -1.6252   -2.9643 H        1 ZINC000020869097    0.0800
33     H33    -0.9890   -0.3070   -2.5035 H        1 ZINC000020869097    0.1000
34     H34     0.1974    0.1169   -4.6863 H        1 ZINC000020869097    0.0900
35     H35     0.5305    1.3604   -3.4562 H        1 ZINC000020869097    0.0900
36     H36     2.3181   -1.0347   -4.0782 H        1 ZINC000020869097    0.1100
37     H37     0.9065    4.6148   -5.2300 H        1 ZINC000020869097    0.1200
38     H38     1.3334    5.8582   -6.4299 H        1 ZINC000020869097    0.1200
39     H39     0.2297    5.9580   -8.5504 H        1 ZINC000020869097    0.1400
40     H40    -1.7086    5.3029   -9.9199 H        1 ZINC000020869097    0.1400
41     H41    -3.0897    3.3754   -9.2589 H        1 ZINC000020869097    0.1400
42     H42    -2.5337    2.1004   -7.2272 H        1 ZINC000020869097    0.1400
43     H43     4.3109   -0.4016   -5.2589 H        1 ZINC000020869097    0.4300
44     H44     3.9213    0.1358   -2.5774 H        1 ZINC000020869097    0.0900
45     H45     2.6855    1.3712   -2.2357 H        1 ZINC000020869097    0.0800
46     H46     2.6644   -0.2814   -0.4374 H        1 ZINC000020869097    0.1000
47     H47     2.4970   -1.6081   -1.6160 H        1 ZINC000020869097    0.0800
@<TRIPOS>BOND
1     1     2     1
2     1     29    1
3     1     30    1
4     1     31    1
5     2     3     2
6     2     4     2
7     2     5     am
8     5     28    1
9     5     6     1
10    6     7     1
11    6     32    1
12    6     33    1
13    7     8     1
14    7     34    1
15    7     35    1
16    8     9     1
17    8     27    1
18    8     36    1
19    9     26    1
20    9     10    2
21    10    11    1
22    11    15    1
23    11    12    2
24    12    13    1
25    12    24    1
26    13    14    2
27    14    15    1
28    15    16    1
29    16    17    1
30    16    37    1
31    16    38    1
32    17    22    ar
33    17    18    ar
34    18    19    ar
35    18    39    1
36    19    20    ar
37    19    40    1
38    20    21    ar
39    20    41    1
40    21    22    ar
41    21    42    1
42    22    23    1
43    24    25    2
44    24    26    am
45    26    43    1
46    27    28    1
47    27    44    1
48    27    45    1
49    28    46    1
50    28    47    1
@<TRIPOS>SUBSTRUCTURE
1   ZINC000020869097 1     RESIDUE    1   A     ZIN   1

@<TRIPOS>MOLECULE
ZINC000020869097
46    49    1     0     0
SMALL
USER_CHARGES
@<TRIPOS>ATOM
1      C1     -0.0225    1.8097    0.0120 C.3      1 ZINC000020869097   -0.6700
2      S2      0.0021   -0.0041    0.0020 S.o2     1 ZINC000020869097    2.6100
3      O3      0.8448   -0.4970    1.0346 O.2      1 ZINC000020869097   -0.9600
4      O4     -1.3093   -0.5195   -0.1821 O.2      1 ZINC000020869097   -0.9600
5      N5      0.7961   -0.3989   -1.3965 N.am     1 ZINC000020869097   -1.0000
6      C6      0.0550   -0.5829   -2.6518 C.3      1 ZINC000020869097    0.1300
7      C7      0.6756    0.3146   -3.7270 C.3      1 ZINC000020869097   -0.1200
8      C8      2.1732    0.0171   -3.8319 C.3      1 ZINC000020869097   -0.0100
9      C9      2.7808    0.8741   -4.9124 C.2      1 ZINC000020869097    0.4100
10     N10     3.3407    1.9987   -4.5732 N.2      1 ZINC000020869097   -0.6200
11     C11     3.9013    2.8120   -5.4798 C.2      1 ZINC000020869097    0.3400
12     C12     3.8889    2.4498   -6.8326 C.2      1 ZINC000020869097   -0.2200
13     N13     4.5037    3.4168   -7.5280 N.2      1 ZINC000020869097   -0.1800
14     N14     4.8982    4.3488   -6.7315 N.2      1 ZINC000020869097   -0.1000
15     N15     4.5401    4.0138   -5.4168 N.pl3    1 ZINC000020869097   -0.3900
16     C16     4.8023    4.8030   -4.2107 C.3      1 ZINC000020869097    0.1900
17     C17     3.6504    5.7431   -3.9653 C.ar     1 ZINC000020869097   -0.1500
18     C18     3.7060    7.0416   -4.4343 C.ar     1 ZINC000020869097   -0.0700
19     C19     2.6493    7.9044   -4.2092 C.ar     1 ZINC000020869097   -0.1400
20     C20     1.5363    7.4693   -3.5145 C.ar     1 ZINC000020869097   -0.0900
21     C21     1.4786    6.1710   -3.0440 C.ar     1 ZINC000020869097   -0.1700
22     C22     2.5332    5.3043   -3.2745 C.ar     1 ZINC000020869097    0.1300
23     F23     2.4779    4.0350   -2.8152 F        1 ZINC000020869097   -0.1100
24     C24     3.2534    1.1803   -7.1942 C.2      1 ZINC000020869097    0.5600
25     O25     3.2079    0.8046   -8.3524 O.2      1 ZINC000020869097   -0.5700
26     N26     2.7248    0.4369   -6.1949 N.pl3    1 ZINC000020869097   -0.6700
27     C27     2.8511    0.3255   -2.4949 C.3      1 ZINC000020869097   -0.1200
28     C28     2.2558   -0.5658   -1.4070 C.3      1 ZINC000020869097    0.1200
29     H29     1.0001    2.1870    0.0043 H        1 ZINC000020869097    0.1300
30     H30    -0.5497    2.1708   -0.8711 H        1 ZINC000020869097    0.1300
31     H31    -0.5327    2.1613    0.9088 H        1 ZINC000020869097    0.1200
32     H32     0.1188   -1.6252   -2.9643 H        1 ZINC000020869097    0.0800
33     H33    -0.9890   -0.3070   -2.5035 H        1 ZINC000020869097    0.0900
34     H34     0.1974    0.1169   -4.6863 H        1 ZINC000020869097    0.0800
35     H35     0.5305    1.3604   -3.4562 H        1 ZINC000020869097    0.0700
36     H36     2.3181   -1.0347   -4.0782 H        1 ZINC000020869097    0.0900
37     H37     4.9145    4.1350   -3.3567 H        1 ZINC000020869097    0.1000
38     H38     5.7185    5.3782   -4.3449 H        1 ZINC000020869097    0.1000
39     H39     4.5754    7.3829   -4.9766 H        1 ZINC000020869097    0.1300
40     H40     2.6937    8.9192   -4.5761 H        1 ZINC000020869097    0.1300
41     H41     0.7117    8.1442   -3.3390 H        1 ZINC000020869097    0.1300
42     H42     0.6092    5.8314   -2.5007 H        1 ZINC000020869097    0.1300
43     H43     3.9213    0.1358   -2.5774 H        1 ZINC000020869097    0.0700
44     H44     2.6855    1.3712   -2.2357 H        1 ZINC000020869097    0.0800
45     H45     2.6644   -0.2814   -0.4374 H        1 ZINC000020869097    0.0900
46     H46     2.4970   -1.6081   -1.6160 H        1 ZINC000020869097    0.0700
@<TRIPOS>BOND
1     1     2     1
2     1     29    1
3     1     30    1
4     1     31    1
5     2     3     2
6     2     4     2
7     2     5     am
8     5     28    1
9     5     6     1
10    6     7     1
11    6     32    1
12    6     33    1
13    7     8     1
14    7     34    1
15    7     35    1
16    8     9     1
17    8     27    1
18    8     36    1
19    9     26    1
20    9     10    2
21    10    11    1
22    11    15    1
23    11    12    2
24    12    13    1
25    12    24    1
26    13    14    2
27    14    15    1
28    15    16    1
29    16    17    1
30    16    37    1
31    16    38    1
32    17    22    ar
33    17    18    ar
34    18    19    ar
35    18    39    1
36    19    20    ar
37    19    40    1
38    20    21    ar
39    20    41    1
40    21    22    ar
41    21    42    1
42    22    23    1
43    24    25    2
44    24    26    1
45    27    28    1
46    27    43    1
47    27    44    1
48    28    45    1
49    28    46    1
@<TRIPOS>SUBSTRUCTURE
1   ZINC000020869097 1     RESIDUE    1   A     ZIN   1
@<TRIPOS>MOLECULE
ZINC000024592016
49    52    1     0     0
SMALL
USER_CHARGES
@<TRIPOS>ATOM
1      C1     -0.0187    1.5258    0.0104 C.3      1 ZINC000024592016   -0.1500
2      C2      0.0021   -0.0041    0.0020 C.3      1 ZINC000024592016   -0.0900
3      H3      0.5120   -0.3570   -0.8943 H        1 ZINC000024592016    0.0800
4      C4     -1.4339   -0.5362    0.0179 C.3      1 ZINC000024592016   -0.1200
5      C5     -1.4211   -2.0435   -0.2458 C.3      1 ZINC000024592016   -0.0400
6      C6     -0.4334   -2.6983    0.7084 C.2      1 ZINC000024592016    0.0900
7      C7      0.5152   -2.0036    1.3604 C.2      1 ZINC000024592016   -0.2300
8      C8      0.7387   -0.5139    1.2456 C.3      1 ZINC000024592016   -0.0300
9      S9      1.4434   -3.1167    2.3570 S.3      1 ZINC000024592016    0.1300
10     C10     0.4810   -4.4207    1.8151 C.2      1 ZINC000024592016    0.2600
11     N11     0.6377   -5.7428    2.2093 N.am     1 ZINC000024592016   -0.6200
12     C12    -0.1804   -6.6942    1.7173 C.2      1 ZINC000024592016    0.5800
13     O13    -1.0562   -6.3946    0.9276 O.2      1 ZINC000024592016   -0.4400
14     C14    -0.0149   -8.0907    2.1338 C.2      1 ZINC000024592016    0.0900
15     N15     0.9183   -8.3996    2.9802 N.2      1 ZINC000024592016   -0.2100
16     N16     1.1070   -9.7208    3.3983 N.am     1 ZINC000024592016   -0.4400
17     C17     1.8507   -9.9954    4.6303 C.3      1 ZINC000024592016    0.1600
18     H18     1.8909  -11.0697    4.8102 H        1 ZINC000024592016    0.1400
19     C19     1.1798   -9.2866    5.8200 C.3      1 ZINC000024592016   -0.1300
20     C20     2.1505   -9.3044    7.0175 C.3      1 ZINC000024592016   -0.5900
21     S21     3.8215   -9.3546    6.2751 S.o2     1 ZINC000024592016    2.4000
22     O22     4.4827   -8.1209    6.5200 O.2      1 ZINC000024592016   -0.9300
23     O23     4.4547  -10.5782    6.6229 O.2      1 ZINC000024592016   -0.9300
24     C24     3.2868   -9.4208    4.5228 C.3      1 ZINC000024592016   -0.6100
25     C25     0.6086  -10.7427    2.6752 C.2      1 ZINC000024592016    0.5000
26     O26     0.7787  -11.8864    3.0403 O.2      1 ZINC000024592016   -0.5000
27     C27    -0.1619  -10.4589    1.4107 C.3      1 ZINC000024592016   -0.1400
28     C28    -0.9344   -9.1452    1.5779 C.3      1 ZINC000024592016   -0.1100
29     N29    -0.4139   -3.9966    0.9840 N.2      1 ZINC000024592016   -0.4700
30     H30     1.0039    1.9031    0.0027 H        1 ZINC000024592016    0.0600
31     H31    -0.5459    1.8868   -0.8726 H        1 ZINC000024592016    0.0600
32     H32    -0.5289    1.8773    0.9072 H        1 ZINC000024592016    0.0600
33     H33    -1.8830   -0.3414    0.9917 H        1 ZINC000024592016    0.0700
34     H34    -2.0152   -0.0366   -0.7571 H        1 ZINC000024592016    0.0800
35     H35    -2.4174   -2.4524   -0.0779 H        1 ZINC000024592016    0.0900
36     H36    -1.1149   -2.2320   -1.2748 H        1 ZINC000024592016    0.0800
37     H37     1.8054   -0.3100    1.1520 H        1 ZINC000024592016    0.0800
38     H38     0.3446   -0.0154    2.1312 H        1 ZINC000024592016    0.0800
39     H39     1.3359   -5.9817    2.8389 H        1 ZINC000024592016    0.4300
40     H40     0.9496   -8.2559    5.5501 H        1 ZINC000024592016    0.1000
41     H41     0.2601   -9.8078    6.0858 H        1 ZINC000024592016    0.1000
42     H42     2.0293   -8.4018    7.6164 H        1 ZINC000024592016    0.1500
43     H43     1.9811  -10.1908    7.6288 H        1 ZINC000024592016    0.1400
44     H44     3.9292  -10.0873    3.9473 H        1 ZINC000024592016    0.1500
45     H45     3.2717   -8.4228    4.0850 H        1 ZINC000024592016    0.1500
46     H46     0.5309  -10.3741    0.5735 H        1 ZINC000024592016    0.1100
47     H47    -0.8642  -11.2709    1.2223 H        1 ZINC000024592016    0.1300
48     H48    -1.7718   -9.3006    2.2581 H        1 ZINC000024592016    0.1100
49     H49    -1.3106   -8.8194    0.6081 H        1 ZINC000024592016    0.1200
@<TRIPOS>BOND
1     1     2     1
2     1     30    1
3     1     31    1
4     1     32    1
5     2     3     1
6     2     8     1
7     2     4     1
8     4     5     1
9     4     33    1
10    4     34    1
11    5     6     1
12    5     35    1
13    5     36    1
14    6     29    1
15    6     7     2
16    7     8     1
17    7     9     1
18    8     37    1
19    8     38    1
20    9     10    1
21    10    11    1
22    10    29    2
23    11    12    am
24    11    39    1
25    12    13    2
26    12    14    1
27    14    28    1
28    14    15    2
29    15    16    1
30    16    17    1
31    16    25    am
32    17    18    1
33    17    24    1
34    17    19    1
35    19    20    1
36    19    40    1
37    19    41    1
38    20    21    1
39    20    42    1
40    20    43    1
41    21    22    2
42    21    23    2
43    21    24    1
44    24    44    1
45    24    45    1
46    25    26    2
47    25    27    1
48    27    28    1
49    27    46    1
50    27    47    1
51    28    48    1
52    28    49    1
@<TRIPOS>SUBSTRUCTURE
1   ZINC000024592016 1     RESIDUE    1   A     ZIN   1
@<TRIPOS>MOLECULE
ZINC000033037746
51    54    1     0     0
SMALL
USER_CHARGES
@<TRIPOS>ATOM
1      C1     -0.0199    1.5027    0.0111 C.3      1 ZINC000033037746   -0.1200
2      C2      0.0013   -0.0041    0.0024 C.ar     1 ZINC000033037746   -0.0800
3      C3      0.9780   -0.6844    0.7067 C.ar     1 ZINC000033037746   -0.1100
4      C4      1.0004   -2.0651    0.7009 C.ar     1 ZINC000033037746   -0.0900
5      C5      0.0401   -2.7708   -0.0132 C.ar     1 ZINC000033037746    0.1400
6      N6      0.0595   -4.1691   -0.0209 N.am     1 ZINC000033037746   -0.3500
7      N7     -0.0368   -4.8612   -1.2336 N.2      1 ZINC000033037746   -0.3000
8      C8     -0.0202   -6.1722   -1.2599 C.2      1 ZINC000033037746    0.3500
9      N9     -0.1169   -6.8413   -2.4788 N.pl3    1 ZINC000033037746   -0.5900
10     C10    -0.1029   -8.2759   -2.4861 C.3      1 ZINC000033037746    0.1300
11     C11     1.3643   -8.7357   -2.5204 C.3      1 ZINC000033037746   -0.1700
12     C12     1.9400   -8.6291   -3.8703 C.3      1 ZINC000033037746    0.1300
13     N13     1.8569   -7.2316   -4.3570 N.am     1 ZINC000033037746   -0.9800
14     S14     3.2032   -6.2675   -4.3377 S.o2     1 ZINC000033037746    2.7200
15     O15     2.7356   -4.9259   -4.3129 O.2      1 ZINC000033037746   -0.9300
16     O16     4.0691   -6.8072   -3.3487 O.2      1 ZINC000033037746   -0.9500
17     C17     4.0200   -6.4812   -5.8843 C.2      1 ZINC000033037746   -0.5600
18     C18     4.9643   -7.4009   -6.1601 C.2      1 ZINC000033037746    0.0700
19     N19     5.3248   -7.2184   -7.4679 N.pl3    1 ZINC000033037746   -0.5600
20     C20     4.5876   -6.1929   -7.9461 C.2      1 ZINC000033037746    0.1900
21     N21     3.8060   -5.7602   -6.9949 N.2      1 ZINC000033037746   -0.4200
22     C22     0.6100   -6.7130   -4.8457 C.3      1 ZINC000033037746    0.1100
23     C23    -0.2375   -6.0445   -3.7303 C.3      1 ZINC000033037746    0.1000
24     C24     0.0950   -6.9088   -0.0646 C.2      1 ZINC000033037746   -0.1000
25     C25     0.1898   -6.2547    1.1242 C.2      1 ZINC000033037746   -0.1400
26     C26     0.1764   -4.8456    1.1393 C.2      1 ZINC000033037746    0.4900
27     O27     0.2609   -4.2416    2.1971 O.2      1 ZINC000033037746   -0.5300
28     C28    -0.9398   -2.0842   -0.7193 C.ar     1 ZINC000033037746   -0.1000
29     C29    -0.9592   -0.7035   -0.7052 C.ar     1 ZINC000033037746   -0.1100
30     H30    -0.6282    1.8527    0.8451 H        1 ZINC000033037746    0.0700
31     H31     0.9970    1.8798    0.1197 H        1 ZINC000033037746    0.0700
32     H32    -0.4439    1.8656   -0.9252 H        1 ZINC000033037746    0.0700
33     H33     1.7242   -0.1351    1.2616 H        1 ZINC000033037746    0.1300
34     H34     1.7637   -2.5957    1.2505 H        1 ZINC000033037746    0.1300
35     H35    -0.5867   -8.6538   -1.5855 H        1 ZINC000033037746    0.0800
36     H36    -0.6255   -8.6450   -3.3686 H        1 ZINC000033037746    0.0900
37     H37     1.9461   -8.1177   -1.8365 H        1 ZINC000033037746    0.0800
38     H38     1.4188   -9.7737   -2.1922 H        1 ZINC000033037746    0.0900
39     H39     2.9844   -8.9399   -3.8427 H        1 ZINC000033037746    0.0900
40     H40     1.3903   -9.2808   -4.5494 H        1 ZINC000033037746    0.0800
41     H41     5.3612   -8.1400   -5.4800 H        1 ZINC000033037746    0.2000
42     H42     5.9861   -7.7302   -7.9594 H        1 ZINC000033037746    0.4300
43     H43     4.6343   -5.7988   -8.9506 H        1 ZINC000033037746    0.2200
44     H44     0.8147   -5.9764   -5.6226 H        1 ZINC000033037746    0.1000
45     H45     0.0343   -7.5302   -5.2802 H        1 ZINC000033037746    0.0800
46     H46    -1.2810   -6.0029   -4.0424 H        1 ZINC000033037746    0.0800
47     H47     0.1292   -5.0337   -3.5516 H        1 ZINC000033037746    0.1000
48     H48     0.1078   -7.9884   -0.0921 H        1 ZINC000033037746    0.1500
49     H49     0.2781   -6.8094    2.0466 H        1 ZINC000033037746    0.1700
50     H50    -1.6876   -2.6298   -1.2757 H        1 ZINC000033037746    0.1300
51     H51    -1.7207   -0.1691   -1.2539 H        1 ZINC000033037746    0.1300
@<TRIPOS>BOND
1     1     2     1
2     1     30    1
3     1     31    1
4     1     32    1
5     2     29    ar
6     2     3     ar
7     3     4     ar
8     3     33    1
9     4     5     ar
10    4     34    1
11    5     6     1
12    5     28    ar
13    6     26    am
14    6     7     1
15    7     8     2
16    8     9     1
17    8     24    1
18    9     23    1
19    9     10    1
20    10    11    1
21    10    35    1
22    10    36    1
23    11    12    1
24    11    37    1
25    11    38    1
26    12    13    1
27    12    39    1
28    12    40    1
29    13    14    am
30    13    22    1
31    14    15    2
32    14    16    2
33    14    17    1
34    17    21    1
35    17    18    2
36    18    19    1
37    18    41    1
38    19    20    1
39    19    42    1
40    20    21    2
41    20    43    1
42    22    23    1
43    22    44    1
44    22    45    1
45    23    46    1
46    23    47    1
47    24    25    2
48    24    48    1
49    25    26    1
50    25    49    1
51    26    27    2
52    28    29    ar
53    28    50    1
54    29    51    1
@<TRIPOS>SUBSTRUCTURE
1   ZINC000033037746 1     RESIDUE    1   A     ZIN   1
@<TRIPOS>MOLECULE
ZINC000040693229
37    38    1     0     0
SMALL
USER_CHARGES
@<TRIPOS>ATOM
1      C1     -0.4985    1.3476    1.2157 C.3      1 ZINC000040693229   -0.1300
2      C2     -0.3575   -0.1204    0.9055 C.ar     1 ZINC000040693229   -0.0200
3      C3     -1.1194   -1.0477    1.5910 C.ar     1 ZINC000040693229   -0.1300
4      C4     -0.9905   -2.3947    1.3069 C.ar     1 ZINC000040693229   -0.0100
5      C5     -0.0997   -2.8144    0.3373 C.ar     1 ZINC000040693229   -0.6700
6      S6      0.0640   -4.5309   -0.0251 S.o2     1 ZINC000040693229    2.6800
7      O7     -0.8835   -5.2055    0.7911 O.2      1 ZINC000040693229   -0.9500
8      O8      0.0880   -4.6414   -1.4416 O.2      1 ZINC000040693229   -0.9300
9      N9      1.5596   -5.0036    0.5062 N.am     1 ZINC000040693229   -0.9900
10     C10     2.6913   -5.0925   -0.4272 C.3      1 ZINC000040693229    0.1000
11     C11     3.8390   -4.2288    0.1106 C.3      1 ZINC000040693229    0.0900
12     N12     4.0584   -4.5664    1.5240 N.am     1 ZINC000040693229   -1.0000
13     S13     5.5542   -5.0381    2.0555 S.o2     1 ZINC000040693229    2.7900
14     N14     6.3648   -3.6694    2.5160 N.am     1 ZINC000040693229   -1.2600
15     O15     5.3393   -5.7946    3.2391 O.2      1 ZINC000040693229   -0.9800
16     O16     6.2407   -5.5484    0.9208 O.2      1 ZINC000040693229   -0.9800
17     C17     2.9267   -4.4776    2.4573 C.3      1 ZINC000040693229    0.1000
18     C18     1.7803   -5.3358    1.9207 C.3      1 ZINC000040693229    0.1100
19     C19     0.6631   -1.8865   -0.3491 C.ar     1 ZINC000040693229    0.0000
20     Br20    1.8823   -2.4602   -1.6759 Br       1 ZINC000040693229   -0.0200
21     C21     0.5297   -0.5388   -0.0685 C.ar     1 ZINC000040693229   -0.1100
22     H22    -1.2729    1.7801    0.5822 H        1 ZINC000040693229    0.0800
23     H23    -0.7737    1.4729    2.2629 H        1 ZINC000040693229    0.0800
24     H24     0.4493    1.8517    1.0263 H        1 ZINC000040693229    0.0800
25     H25    -1.8154   -0.7201    2.3491 H        1 ZINC000040693229    0.1400
26     H26    -1.5858   -3.1190    1.8430 H        1 ZINC000040693229    0.1500
27     H27     3.0195   -6.1288   -0.5065 H        1 ZINC000040693229    0.0900
28     H28     2.3865   -4.7266   -1.4076 H        1 ZINC000040693229    0.1100
29     H29     4.7463   -4.4304   -0.4588 H        1 ZINC000040693229    0.1100
30     H30     3.5758   -3.1747    0.0229 H        1 ZINC000040693229    0.0800
31     H31     5.9352   -2.8029    2.4410 H        1 ZINC000040693229    0.4100
32     H32     7.2691   -3.7342    2.8608 H        1 ZINC000040693229    0.4200
33     H33     3.2315   -4.8435    3.4378 H        1 ZINC000040693229    0.1100
34     H34     2.5984   -3.4412    2.5367 H        1 ZINC000040693229    0.0800
35     H35     0.8737   -5.1333    2.4909 H        1 ZINC000040693229    0.1000
36     H36     2.0416   -6.3905    2.0068 H        1 ZINC000040693229    0.0900
37     H37     1.1248    0.1859   -0.6043 H        1 ZINC000040693229    0.1400
@<TRIPOS>BOND
1     1     2     1
2     1     22    1
3     1     23    1
4     1     24    1
5     2     21    ar
6     2     3     ar
7     3     4     ar
8     3     25    1
9     4     5     ar
10    4     26    1
11    5     6     1
12    5     19    ar
13    6     7     2
14    6     8     2
15    6     9     am
16    9     18    1
17    9     10    1
18    10    11    1
19    10    27    1
20    10    28    1
21    11    12    1
22    11    29    1
23    11    30    1
24    12    13    am
25    12    17    1
26    13    14    am
27    13    15    2
28    13    16    2
29    14    31    1
30    14    32    1
31    17    18    1
32    17    33    1
33    17    34    1
34    18    35    1
35    18    36    1
36    19    20    1
37    19    21    ar
38    21    37    1
@<TRIPOS>SUBSTRUCTURE
1   ZINC000040693229 1     RESIDUE    1   A     ZIN   1
@<TRIPOS>MOLECULE
ZINC000041066234
29    30    1     0     0
SMALL
USER_CHARGES
@<TRIPOS>ATOM
1      O1     -0.3435    1.9949    1.1747 O.2      1 ZINC000041066234   -0.9400
2      S2      0.0813    1.4198   -0.0533 S.o2     1 ZINC000041066234    2.6900
3      O3      0.2311    0.0199   -0.2452 O.2      1 ZINC000041066234   -0.9200
4      N4     -0.9875    1.9383   -1.2070 N.am     1 ZINC000041066234   -1.1000
5      C5     -1.3440    3.3568   -1.2906 C.3      1 ZINC000041066234    0.1600
6      H6     -1.1823    3.8329   -0.3235 H        1 ZINC000041066234    0.1200
7      C7     -0.4764    4.0462   -2.3583 C.3      1 ZINC000041066234   -0.1500
8      C8     -1.1206    5.4307   -2.6270 C.3      1 ZINC000041066234   -0.5900
9      S9     -2.9096    5.0352   -2.6771 S.o2     1 ZINC000041066234    2.4000
10     O10    -3.6303    6.0208   -1.9501 O.2      1 ZINC000041066234   -0.9300
11     O11    -3.2859    4.7240   -4.0116 O.2      1 ZINC000041066234   -0.9300
12     C12    -2.8250    3.4960   -1.6957 C.3      1 ZINC000041066234   -0.6100
13     C13     1.6439    2.1432   -0.4271 C.ar     1 ZINC000041066234   -0.7300
14     C14     2.2170    3.0611    0.4381 C.ar     1 ZINC000041066234    0.0600
15     C15     3.4491    3.6052    0.1028 C.ar     1 ZINC000041066234   -0.1700
16     Br16    4.2826    4.8625    1.2432 Br       1 ZINC000041066234    0.0000
17     C17     4.0595    3.2162   -1.0749 C.ar     1 ZINC000041066234    0.2100
18     N18     3.4846    2.3395   -1.8753 N.ar     1 ZINC000041066234   -0.4700
19     C19     2.3169    1.7975   -1.5860 C.ar     1 ZINC000041066234    0.2800
20     Cl20    1.6099    0.6485   -2.6786 Cl       1 ZINC000041066234    0.0200
21     H21    -1.3775    1.3028   -1.8274 H        1 ZINC000041066234    0.4300
22     H22     0.5407    4.1734   -1.9876 H        1 ZINC000041066234    0.1000
23     H23    -0.4695    3.4538   -3.2732 H        1 ZINC000041066234    0.1000
24     H24    -0.9002    6.1241   -1.8153 H        1 ZINC000041066234    0.1400
25     H25    -0.7865    5.8338   -3.5830 H        1 ZINC000041066234    0.1500
26     H26    -3.1352    2.6439   -2.3005 H        1 ZINC000041066234    0.1500
27     H27    -3.4512    3.5787   -0.8073 H        1 ZINC000041066234    0.1500
28     H28     1.7168    3.3467    1.3516 H        1 ZINC000041066234    0.1800
29     H29     5.0181    3.6353   -1.3430 H        1 ZINC000041066234    0.1900
@<TRIPOS>BOND
1     1     2     2
2     2     3     2
3     2     4     am
4     2     13    1
5     4     5     1
6     4     21    1
7     5     6     1
8     5     12    1
9     5     7     1
10    7     8     1
11    7     22    1
12    7     23    1
13    8     9     1
14    8     24    1
15    8     25    1
16    9     10    2
17    9     11    2
18    9     12    1
19    12    26    1
20    12    27    1
21    13    19    ar
22    13    14    ar
23    14    15    ar
24    14    28    1
25    15    16    1
26    15    17    ar
27    17    18    ar
28    17    29    1
29    18    19    ar
30    19    20    1
@<TRIPOS>SUBSTRUCTURE
1   ZINC000041066234 1     RESIDUE    1   A     ZIN   1

@<TRIPOS>MOLECULE
ZINC000041066234
28    29    1     0     0
SMALL
USER_CHARGES
@<TRIPOS>ATOM
1      O1      0.0021   -0.0041    0.0020 O.2      1 ZINC000041066234   -1.0400
2      S2     -0.0172    1.4168    0.0098 S.o2     1 ZINC000041066234    2.5700
3      O3      1.1617    2.2101    0.0028 O.2      1 ZINC000041066234   -1.0300
4      N4     -0.9002    1.8797   -1.3124 N.pl3    1 ZINC000041066234   -1.1300
5      C5     -0.3933    1.6148   -2.6611 C.3      1 ZINC000041066234    0.1800
6      H6      0.5704    2.1065   -2.7935 H        1 ZINC000041066234    0.0300
7      C7     -0.2325    0.0980   -2.8646 C.3      1 ZINC000041066234   -0.1500
8      C8     -0.0210   -0.1257   -4.3842 C.3      1 ZINC000041066234   -0.5900
9      S9     -1.2498    1.0119   -5.1296 S.o2     1 ZINC000041066234    2.3700
10     O10    -0.6544    1.6977   -6.2225 O.2      1 ZINC000041066234   -0.9600
11     O11    -2.4794    0.3233   -5.3114 O.2      1 ZINC000041066234   -0.9500
12     C12    -1.3948    2.1474   -3.7052 C.3      1 ZINC000041066234   -0.5400
13     C13    -0.9297    1.8941    1.4396 C.ar     1 ZINC000041066234   -0.6400
14     C14    -1.4276    0.9350    2.3066 C.ar     1 ZINC000041066234    0.0500
15     C15    -2.1405    1.3572    3.4201 C.ar     1 ZINC000041066234   -0.1800
16     Br16   -2.8446    0.0961    4.6406 Br       1 ZINC000041066234   -0.0300
17     C17    -2.3290    2.7111    3.6260 C.ar     1 ZINC000041066234    0.1800
18     N18    -1.8406    3.5968    2.7794 N.ar     1 ZINC000041066234   -0.4900
19     C19    -1.1532    3.2322    1.7138 C.ar     1 ZINC000041066234    0.2700
20     Cl20   -0.5346    4.4440    0.6356 Cl       1 ZINC000041066234    0.0200
21     H21     0.6335   -0.2633   -2.3100 H        1 ZINC000041066234    0.0900
22     H22    -1.1319   -0.4206   -2.5326 H        1 ZINC000041066234    0.0900
23     H23     0.9912    0.1513   -4.6789 H        1 ZINC000041066234    0.1300
24     H24    -0.2353   -1.1591   -4.6567 H        1 ZINC000041066234    0.1300
25     H25    -2.4085    2.1253   -3.3052 H        1 ZINC000041066234    0.1400
26     H26    -1.1256    3.1615   -4.0006 H        1 ZINC000041066234    0.1300
27     H27    -1.2651   -0.1163    2.1202 H        1 ZINC000041066234    0.1700
28     H28    -2.8830    3.0475    4.4899 H        1 ZINC000041066234    0.1700
@<TRIPOS>BOND
1     1     2     2
2     2     3     2
3     2     4     1
4     2     13    1
5     4     5     1
6     5     6     1
7     5     12    1
8     5     7     1
9     7     8     1
10    7     21    1
11    7     22    1
12    8     9     1
13    8     23    1
14    8     24    1
15    9     10    2
16    9     11    2
17    9     12    1
18    12    25    1
19    12    26    1
20    13    19    ar
21    13    14    ar
22    14    15    ar
23    14    27    1
24    15    16    1
25    15    17    ar
26    17    18    ar
27    17    28    1
28    18    19    ar
29    19    20    1
@<TRIPOS>SUBSTRUCTURE
1   ZINC000041066234 1     RESIDUE    1   A     ZIN   1
@<TRIPOS>MOLECULE
ZINC000042341431
34    35    1     0     0
SMALL
USER_CHARGES
@<TRIPOS>ATOM
1      N1     -0.0204    1.6518    0.0111 N.am     1 ZINC000042341431   -1.2600
2      S2      0.0021   -0.0041    0.0020 S.o2     1 ZINC000042341431    2.7900
3      O3      1.3604   -0.3860   -0.1664 O.2      1 ZINC000042341431   -0.9700
4      O4     -0.7920   -0.4222    1.1038 O.2      1 ZINC000042341431   -0.9700
5      N5     -0.7951   -0.4976   -1.3630 N.am     1 ZINC000042341431   -1.0100
6      C6     -2.2456   -0.7330   -1.3382 C.3      1 ZINC000042341431    0.1100
7      C7     -2.8993    0.1199   -2.4325 C.3      1 ZINC000042341431    0.1000
8      N8     -2.1690   -0.0901   -3.6905 N.am     1 ZINC000042341431   -0.9900
9      S9     -2.9664   -0.5826   -5.0558 S.o2     1 ZINC000042341431    2.6900
10     O10    -1.9960   -1.2094   -5.8831 O.2      1 ZINC000042341431   -0.9500
11     O11    -4.1503   -1.2340   -4.6160 O.2      1 ZINC000042341431   -0.9500
12     C12    -3.4850    0.8691   -5.9092 C.ar     1 ZINC000042341431   -0.6700
13     C13    -4.7179    1.4299   -5.6328 C.ar     1 ZINC000042341431   -0.0100
14     C14    -5.1249    2.5689   -6.3017 C.ar     1 ZINC000042341431   -0.1100
15     C15    -4.2983    3.1477   -7.2478 C.ar     1 ZINC000042341431   -0.0400
16     Br16   -4.8543    4.7064   -8.1629 Br       1 ZINC000042341431   -0.0300
17     C17    -3.0647    2.5862   -7.5241 C.ar     1 ZINC000042341431   -0.1100
18     C18    -2.6563    1.4502   -6.8509 C.ar     1 ZINC000042341431   -0.0100
19     C19    -0.7186    0.1453   -3.7153 C.3      1 ZINC000042341431    0.1000
20     C20    -0.0658   -0.7022   -2.6224 C.3      1 ZINC000042341431    0.1100
21     H21     0.8130    2.1481    0.0058 H        1 ZINC000042341431    0.4200
22     H22    -0.8669    2.1253    0.0177 H        1 ZINC000042341431    0.4200
23     H23    -2.4484   -1.7873   -1.5261 H        1 ZINC000042341431    0.0900
24     H24    -2.6457   -0.4487   -0.3649 H        1 ZINC000042341431    0.1100
25     H25    -3.9393   -0.1810   -2.5586 H        1 ZINC000042341431    0.1100
26     H26    -2.8517    1.1725   -2.1533 H        1 ZINC000042341431    0.0800
27     H27    -5.3634    0.9778   -4.8943 H        1 ZINC000042341431    0.1500
28     H28    -6.0883    3.0068   -6.0860 H        1 ZINC000042341431    0.1500
29     H29    -2.4189    3.0377   -8.2627 H        1 ZINC000042341431    0.1500
30     H30    -1.6932    1.0117   -7.0665 H        1 ZINC000042341431    0.1500
31     H31    -0.3184   -0.1390   -4.6885 H        1 ZINC000042341431    0.1100
32     H32    -0.5158    1.1996   -3.5274 H        1 ZINC000042341431    0.0800
33     H33     0.9740   -0.4003   -2.4974 H        1 ZINC000042341431    0.1100
34     H34    -0.1128   -1.7555   -2.8992 H        1 ZINC000042341431    0.0800
@<TRIPOS>BOND
1     1     2     am
2     1     21    1
3     1     22    1
4     2     3     2
5     2     4     2
6     2     5     am
7     5     20    1
8     5     6     1
9     6     7     1
10    6     23    1
11    6     24    1
12    7     8     1
13    7     25    1
14    7     26    1
15    8     9     am
16    8     19    1
17    9     10    2
18    9     11    2
19    9     12    1
20    12    18    ar
21    12    13    ar
22    13    14    ar
23    13    27    1
24    14    15    ar
25    14    28    1
26    15    16    1
27    15    17    ar
28    17    18    ar
29    17    29    1
30    18    30    1
31    19    20    1
32    19    31    1
33    19    32    1
34    20    33    1
35    20    34    1
@<TRIPOS>SUBSTRUCTURE
1   ZINC000042341431 1     RESIDUE    1   A     ZIN   1
@<TRIPOS>MOLECULE
ZINC000020718991
39    42    1     0     0
SMALL
USER_CHARGES
@<TRIPOS>ATOM
1      C1     -1.5605    2.7202   -2.0434 C.3      1 ZINC000020718991   -0.6500
2      S2     -1.2338    1.0126   -1.5259 S.o2     1 ZINC000020718991    2.5000
3      O3     -0.4319    0.9918   -0.3529 O.2      1 ZINC000020718991   -0.9300
4      O4     -2.4151    0.2284   -1.6196 O.2      1 ZINC000020718991   -0.9300
5      C5     -0.1820    0.3658   -2.7829 C.ar     1 ZINC000020718991   -0.6600
6      C6     -0.7309   -0.2543   -3.8954 C.ar     1 ZINC000020718991   -0.0200
7      C7      0.0765   -0.7623   -4.8816 C.ar     1 ZINC000020718991   -0.0800
8      C8      1.4800   -0.6610   -4.7790 C.ar     1 ZINC000020718991    0.1600
9      N9      2.4223   -1.0963   -5.6382 N.2      1 ZINC000020718991   -0.4700
10     C10     3.6570   -0.8915   -5.3337 C.2      1 ZINC000020718991    0.3600
11     N11     4.7367   -1.2767   -6.1096 N.am     1 ZINC000020718991   -0.6300
12     C12     4.5327   -1.9166   -7.2781 C.2      1 ZINC000020718991    0.5600
13     O13     3.4003   -2.1554   -7.6507 O.2      1 ZINC000020718991   -0.4200
14     C14     5.6829   -2.3269   -8.1046 C.ar     1 ZINC000020718991   -0.1400
15     C15     6.6559   -1.3925   -8.4667 C.ar     1 ZINC000020718991   -0.0300
16     C16     7.7286   -1.7810   -9.2391 C.ar     1 ZINC000020718991   -0.1500
17     C17     7.8471   -3.0978   -9.6602 C.ar     1 ZINC000020718991    0.1600
18     F18     8.9026   -3.4690  -10.4174 F        1 ZINC000020718991   -0.1200
19     C19     6.8892   -4.0334   -9.3079 C.ar     1 ZINC000020718991   -0.1700
20     C20     5.8082   -3.6591   -8.5264 C.ar     1 ZINC000020718991    0.2200
21     N21     4.8399   -4.6028   -8.1692 N.pl3    1 ZINC000020718991   -0.3500
22     C22     4.7474   -5.8837   -8.5902 C.2      1 ZINC000020718991    0.2300
23     N23     3.6982   -6.4072   -8.0125 N.2      1 ZINC000020718991   -0.3200
24     N24     3.1209   -5.5455   -7.2552 N.2      1 ZINC000020718991   -0.0300
25     N25     3.7570   -4.4244   -7.2902 N.2      1 ZINC000020718991   -0.0300
26     S26     3.7766   -0.0528   -3.7932 S.3      1 ZINC000020718991    0.0900
27     C27     2.0204   -0.0330   -3.6523 C.ar     1 ZINC000020718991   -0.2100
28     C28     1.1853    0.4810   -2.6636 C.ar     1 ZINC000020718991    0.0400
29     H29    -0.6196    3.2667   -2.1077 H        1 ZINC000020718991    0.1300
30     H30    -2.0465    2.7175   -3.0191 H        1 ZINC000020718991    0.1300
31     H31    -2.2118    3.2025   -1.3144 H        1 ZINC000020718991    0.1400
32     H32    -1.8038   -0.3385   -3.9861 H        1 ZINC000020718991    0.1600
33     H33    -0.3651   -1.2432   -5.7419 H        1 ZINC000020718991    0.1500
34     H34     5.6402   -1.0861   -5.8123 H        1 ZINC000020718991    0.4300
35     H35     6.5673   -0.3664   -8.1417 H        1 ZINC000020718991    0.1600
36     H36     8.4803   -1.0575   -9.5183 H        1 ZINC000020718991    0.1600
37     H37     6.9870   -5.0567   -9.6392 H        1 ZINC000020718991    0.1600
38     H38     5.4161   -6.3821   -9.2764 H        1 ZINC000020718991    0.2400
39     H39     1.6112    0.9685   -1.7990 H        1 ZINC000020718991    0.1500
@<TRIPOS>BOND
1     1     2     1
2     1     29    1
3     1     30    1
4     1     31    1
5     2     3     2
6     2     4     2
7     2     5     1
8     5     28    ar
9     5     6     ar
10    6     7     ar
11    6     32    1
12    7     8     ar
13    7     33    1
14    8     27    ar
15    8     9     1
16    9     10    2
17    10    11    1
18    10    26    1
19    11    12    am
20    11    34    1
21    12    13    2
22    12    14    1
23    14    20    ar
24    14    15    ar
25    15    16    ar
26    15    35    1
27    16    17    ar
28    16    36    1
29    17    18    1
30    17    19    ar
31    19    20    ar
32    19    37    1
33    20    21    1
34    21    25    1
35    21    22    1
36    22    23    2
37    22    38    1
38    23    24    1
39    24    25    2
40    26    27    1
41    27    28    ar
42    28    39    1
@<TRIPOS>SUBSTRUCTURE
1   ZINC000020718991 1     RESIDUE    1   A     ZIN   1
@<TRIPOS>MOLECULE
ZINC000035939838
46    50    1     0     0
SMALL
USER_CHARGES
@<TRIPOS>ATOM
1      C1     -0.1798    1.4865   -0.0195 C.3      1 ZINC000035939838   -0.1400
2      C2     -0.1135   -0.0421   -0.0248 C.3      1 ZINC000035939838    0.1100
3      C3     -1.5307   -0.6182   -0.0466 C.3      1 ZINC000035939838   -0.1800
4      C4      0.6596   -0.5192   -1.2566 C.3      1 ZINC000035939838   -0.1200
5      C5      0.9738   -1.9845   -1.1207 C.ar     1 ZINC000035939838    0.0300
6      C6      1.3549   -2.7117   -2.2746 C.ar     1 ZINC000035939838   -0.1500
7      C7      1.6497   -4.0673   -2.1442 C.ar     1 ZINC000035939838    0.0900
8      N8      1.5701   -4.6552   -0.9455 N.ar     1 ZINC000035939838   -0.4800
9      C9      1.2149   -3.9900    0.1354 C.ar     1 ZINC000035939838    0.3700
10     N10     1.1498   -4.6514    1.3535 N.3      1 ZINC000035939838   -0.4800
11     C11     2.4601   -4.6579    2.0202 C.3      1 ZINC000035939838    0.0200
12     C12     2.3298   -5.3429    3.3831 C.3      1 ZINC000035939838    0.0700
13     O13     1.8090   -6.6623    3.2001 O.3      1 ZINC000035939838   -0.3800
14     C14     0.5334   -6.6931    2.5541 C.3      1 ZINC000035939838    0.0600
15     C15     0.6455   -6.0217    1.1827 C.3      1 ZINC000035939838    0.0200
16     C16     0.9032   -2.6273    0.0743 C.ar     1 ZINC000035939838   -0.1500
17     C17     0.4906   -1.9111    1.3331 C.3      1 ZINC000035939838    0.1200
18     O18     0.5737   -0.4982    1.1462 O.3      1 ZINC000035939838   -0.3600
19     S19     2.0921   -4.7448   -3.7045 S.3      1 ZINC000035939838    0.3200
20     C20     1.8830   -3.2084   -4.5260 C.2      1 ZINC000035939838   -0.2400
21     C21     1.4938   -2.2306   -3.6473 C.2      1 ZINC000035939838    0.1900
22     N22     1.2851   -0.9468   -4.1427 N.pl3    1 ZINC000035939838   -0.5900
23     C23     1.4620   -0.6807   -5.4471 C.2      1 ZINC000035939838    0.4000
24     N24     1.8314   -1.5998   -6.2954 N.2      1 ZINC000035939838   -0.5000
25     C25     2.0526   -2.8633   -5.8984 C.2      1 ZINC000035939838    0.3400
26     S26     2.5365   -4.0511   -7.0324 S.2      1 ZINC000035939838   -0.4900
27     H27     0.8312    1.8940   -0.0115 H        1 ZINC000035939838    0.0700
28     H28    -0.7031    1.8305   -0.9116 H        1 ZINC000035939838    0.0700
29     H29    -0.7146    1.8239    0.8683 H        1 ZINC000035939838    0.0700
30     H30    -2.0485   -0.2754   -0.9424 H        1 ZINC000035939838    0.0700
31     H31    -1.4802   -1.7070   -0.0503 H        1 ZINC000035939838    0.0600
32     H32    -2.0730   -0.2826    0.8374 H        1 ZINC000035939838    0.0800
33     H33     0.0546   -0.3591   -2.1490 H        1 ZINC000035939838    0.0900
34     H34     1.5885    0.0445   -1.3427 H        1 ZINC000035939838    0.1000
35     H35     3.1780   -5.2019    1.4065 H        1 ZINC000035939838    0.0600
36     H36     2.8026   -3.6325    2.1595 H        1 ZINC000035939838    0.0900
37     H37     3.3099   -5.4010    3.8565 H        1 ZINC000035939838    0.1100
38     H38     1.6528   -4.7689    4.0158 H        1 ZINC000035939838    0.0700
39     H39     0.2143   -7.7277    2.4278 H        1 ZINC000035939838    0.1100
40     H40    -0.1958   -6.1584    3.1626 H        1 ZINC000035939838    0.0600
41     H41    -0.3366   -5.9920    0.7107 H        1 ZINC000035939838    0.0900
42     H42     1.3344   -6.5876    0.5556 H        1 ZINC000035939838    0.0700
43     H43    -0.5350   -2.1823    1.5832 H        1 ZINC000035939838    0.0800
44     H44     1.1494   -2.2072    2.1495 H        1 ZINC000035939838    0.1200
45     H45     1.0091   -0.2381   -3.5407 H        1 ZINC000035939838    0.4300
46     H46     1.2929    0.3244   -5.8043 H        1 ZINC000035939838    0.2300
@<TRIPOS>BOND
1     1     2     1
2     1     27    1
3     1     28    1
4     1     29    1
5     2     18    1
6     2     3     1
7     2     4     1
8     3     30    1
9     3     31    1
10    3     32    1
11    4     5     1
12    4     33    1
13    4     34    1
14    5     16    ar
15    5     6     ar
16    6     21    1
17    6     7     ar
18    7     8     ar
19    7     19    1
20    8     9     ar
21    9     10    1
22    9     16    ar
23    10    15    1
24    10    11    1
25    11    12    1
26    11    35    1
27    11    36    1
28    12    13    1
29    12    37    1
30    12    38    1
31    13    14    1
32    14    15    1
33    14    39    1
34    14    40    1
35    15    41    1
36    15    42    1
37    16    17    1
38    17    18    1
39    17    43    1
40    17    44    1
41    19    20    1
42    20    25    1
43    20    21    2
44    21    22    1
45    22    23    1
46    22    45    1
47    23    24    2
48    23    46    1
49    24    25    1
50    25    26    2
@<TRIPOS>SUBSTRUCTURE
1   ZINC000035939838 1     RESIDUE    1   A     ZIN   1

@<TRIPOS>MOLECULE
ZINC000035939838
45    49    1     0     0
SMALL
USER_CHARGES
@<TRIPOS>ATOM
1      C1     -0.1798    1.4865   -0.0195 C.3      1 ZINC000035939838   -0.1300
2      C2     -0.1135   -0.0421   -0.0248 C.3      1 ZINC000035939838    0.1100
3      C3     -1.5307   -0.6182   -0.0466 C.3      1 ZINC000035939838   -0.1800
4      C4      0.6596   -0.5192   -1.2566 C.3      1 ZINC000035939838   -0.1000
5      C5      0.9738   -1.9845   -1.1207 C.ar     1 ZINC000035939838    0.0400
6      C6      1.3549   -2.7117   -2.2746 C.ar     1 ZINC000035939838   -0.1200
7      C7      1.6497   -4.0673   -2.1442 C.ar     1 ZINC000035939838    0.0800
8      N8      1.5701   -4.6552   -0.9455 N.ar     1 ZINC000035939838   -0.4900
9      C9      1.2149   -3.9900    0.1354 C.ar     1 ZINC000035939838    0.3400
10     N10     1.1498   -4.6514    1.3535 N.3      1 ZINC000035939838   -0.4800
11     C11     2.4601   -4.6579    2.0202 C.3      1 ZINC000035939838    0.0200
12     C12     2.3298   -5.3429    3.3831 C.3      1 ZINC000035939838    0.0700
13     O13     1.8090   -6.6623    3.2001 O.3      1 ZINC000035939838   -0.3800
14     C14     0.5334   -6.6931    2.5541 C.3      1 ZINC000035939838    0.0700
15     C15     0.6455   -6.0217    1.1827 C.3      1 ZINC000035939838    0.0200
16     C16     0.9032   -2.6273    0.0743 C.ar     1 ZINC000035939838   -0.1700
17     C17     0.4906   -1.9111    1.3331 C.3      1 ZINC000035939838    0.1300
18     O18     0.5737   -0.4982    1.1462 O.3      1 ZINC000035939838   -0.3700
19     S19     2.0921   -4.7448   -3.7045 S.3      1 ZINC000035939838    0.2200
20     C20     1.8830   -3.2084   -4.5260 C.2      1 ZINC000035939838   -0.2600
21     C21     1.4938   -2.2306   -3.6473 C.2      1 ZINC000035939838    0.1800
22     N22     1.2851   -0.9468   -4.1427 N.pl3    1 ZINC000035939838   -0.5600
23     C23     1.4620   -0.6807   -5.4471 C.2      1 ZINC000035939838    0.3100
24     N24     1.8314   -1.5998   -6.2954 N.2      1 ZINC000035939838   -0.5500
25     C25     2.0526   -2.8633   -5.8984 C.2      1 ZINC000035939838    0.3800
26     S26     2.5365   -4.0511   -7.0324 S.2      1 ZINC000035939838   -0.7500
27     H27     0.8312    1.8940   -0.0115 H        1 ZINC000035939838    0.0600
28     H28    -0.7031    1.8305   -0.9116 H        1 ZINC000035939838    0.0700
29     H29    -0.7146    1.8239    0.8683 H        1 ZINC000035939838    0.0600
30     H30    -2.0485   -0.2754   -0.9424 H        1 ZINC000035939838    0.0700
31     H31    -1.4802   -1.7070   -0.0503 H        1 ZINC000035939838    0.0600
32     H32    -2.0730   -0.2826    0.8374 H        1 ZINC000035939838    0.0600
33     H33     0.0546   -0.3591   -2.1490 H        1 ZINC000035939838    0.1100
34     H34     1.5885    0.0445   -1.3427 H        1 ZINC000035939838    0.0900
35     H35     3.1780   -5.2019    1.4065 H        1 ZINC000035939838    0.0600
36     H36     2.8026   -3.6325    2.1595 H        1 ZINC000035939838    0.0900
37     H37     3.3099   -5.4010    3.8565 H        1 ZINC000035939838    0.1000
38     H38     1.6528   -4.7689    4.0158 H        1 ZINC000035939838    0.0600
39     H39     0.2143   -7.7277    2.4278 H        1 ZINC000035939838    0.1000
40     H40    -0.1958   -6.1584    3.1626 H        1 ZINC000035939838    0.0600
41     H41    -0.3366   -5.9920    0.7107 H        1 ZINC000035939838    0.0900
42     H42     1.3344   -6.5876    0.5556 H        1 ZINC000035939838    0.0700
43     H43    -0.5350   -2.1823    1.5832 H        1 ZINC000035939838    0.0700
44     H44     1.1494   -2.2072    2.1495 H        1 ZINC000035939838    0.1000
45     H45     1.2929    0.3244   -5.8043 H        1 ZINC000035939838    0.1900
@<TRIPOS>BOND
1     1     2     1
2     1     27    1
3     1     28    1
4     1     29    1
5     2     18    1
6     2     3     1
7     2     4     1
8     3     30    1
9     3     31    1
10    3     32    1
11    4     5     1
12    4     33    1
13    4     34    1
14    5     16    ar
15    5     6     ar
16    6     21    1
17    6     7     ar
18    7     8     ar
19    7     19    1
20    8     9     ar
21    9     10    1
22    9     16    ar
23    10    15    1
24    10    11    1
25    11    12    1
26    11    35    1
27    11    36    1
28    12    13    1
29    12    37    1
30    12    38    1
31    13    14    1
32    14    15    1
33    14    39    1
34    14    40    1
35    15    41    1
36    15    42    1
37    16    17    1
38    17    18    1
39    17    43    1
40    17    44    1
41    19    20    1
42    20    25    1
43    20    21    2
44    21    22    1
45    22    23    1
46    23    24    2
47    23    45    1
48    24    25    1
49    25    26    2
@<TRIPOS>SUBSTRUCTURE
1   ZINC000035939838 1     RESIDUE    1   A     ZIN   1
@<TRIPOS>MOLECULE
ZINC000020489273
  45   47    0    0    0
SMALL
USER_CHARGES
NO_NAME
@<TRIPOS>ATOM
    1 C1       -0.0184     1.5028     0.0103 C.3    1 <0>      -0.1600
    2 C2        0.0021    -0.0041     0.0020 C.2    1 <0>       0.3500
    3 C3       -1.1561    -0.6982     0.0037 C.2    1 <0>      -0.8700
    4 S4       -2.7027     0.1458     0.0156 S.o2   1 <0>       2.7300
    5 O5       -3.5239    -0.5345     0.9548 O.2    1 <0>      -0.9300
    6 O6       -2.4028     1.5319     0.1059 O.2    1 <0>      -0.9500
    7 N7       -3.3992    -0.0861    -1.4688 N.am   1 <0>      -0.9900
    8 C8       -3.1440     0.8497    -2.5743 C.3    1 <0>       0.1100
    9 C9       -4.4927     1.2864    -3.1587 C.3    1 <0>      -0.1300
   10 C10      -5.3172     0.0418    -3.4976 C.3    1 <0>       0.0500
   11 N11      -5.5519    -0.7411    -2.2773 N.3    1 <0>      -0.5400
   12 C12      -6.4795    -1.8509    -2.5341 C.3    1 <0>       0.1000
   13 C13      -7.8404    -1.2998    -2.8738 C.ar   1 <0>      -0.0900
   14 C14      -8.7595    -1.0616    -1.8690 C.ar   1 <0>      -0.0700
   15 C15     -10.0078    -0.5562    -2.1793 C.ar   1 <0>      -0.1500
   16 C16     -10.3375    -0.2880    -3.4970 C.ar   1 <0>       0.1000
   17 F17     -11.5573     0.2065    -3.8015 F      1 <0>      -0.1400
   18 C18      -9.4159    -0.5266    -4.5025 C.ar   1 <0>      -0.1600
   19 C19      -8.1666    -1.0275    -4.1893 C.ar   1 <0>      -0.0900
   20 C20      -4.2818    -1.2353    -1.7141 C.3    1 <0>       0.2900
   21 C21      -1.1111    -2.1132    -0.0047 C.2    1 <0>       0.6000
   22 O22      -2.1424    -2.7608    -0.0038 O.2    1 <0>      -0.4900
   23 N23       0.0842    -2.7371    -0.0142 N.am   1 <0>      -0.6500
   24 C24       1.2235    -2.0204    -0.0156 C.2    1 <0>       0.7000
   25 O25       2.2941    -2.5967    -0.0242 O.2    1 <0>      -0.5200
   26 N26       1.1944    -0.6753    -0.0130 N.am   1 <0>      -0.6300
   27 H27       1.0042     1.8801     0.0026 H      1 <0>       0.0900
   28 H28      -0.5455     1.8639    -0.8728 H      1 <0>       0.1300
   29 H29      -0.5286     1.8543     0.9071 H      1 <0>       0.1300
   30 H30      -2.6062     1.7212    -2.2010 H      1 <0>       0.1000
   31 H31      -2.5528     0.3551    -3.3450 H      1 <0>       0.0700
   32 H32      -5.0287     1.8906    -2.4268 H      1 <0>       0.0800
   33 H33      -4.3258     1.8707    -4.0636 H      1 <0>       0.0800
   34 H34      -6.2735     0.3450    -3.9239 H      1 <0>       0.0800
   35 H35      -4.7746    -0.5671    -4.2208 H      1 <0>       0.0400
   36 H36      -6.1104    -2.4473    -3.3685 H      1 <0>       0.0500
   37 H37      -6.5526    -2.4766    -1.6446 H      1 <0>       0.0900
   38 H38      -8.5021    -1.2708    -0.8412 H      1 <0>       0.1400
   39 H39     -10.7260    -0.3708    -1.3943 H      1 <0>       0.1400
   40 H40      -9.6721    -0.3180    -5.5307 H      1 <0>       0.1300
   41 H41      -7.4474    -1.2133    -4.9733 H      1 <0>       0.1300
   42 H42      -3.8114    -1.9202    -2.4196 H      1 <0>       0.0500
   43 H43      -4.4756    -1.7523    -0.7743 H      1 <0>       0.1200
   44 H44       0.1232    -3.7063    -0.0197 H      1 <0>       0.4400
   45 H45       2.0264    -0.1767    -0.0144 H      1 <0>       0.4400
@<TRIPOS>BOND
   1    1    2 1
   2    1   27 1
   3    1   28 1
   4    1   29 1
   5    2   26 1
   6    2    3 2
   7    3    4 1
   8    3   21 1
   9    4    5 2
  10    4    6 2
  11    4    7 am
  12    7   20 1
  13    7    8 1
  14    8    9 1
  15    8   30 1
  16    8   31 1
  17    9   10 1
  18    9   32 1
  19    9   33 1
  20   10   11 1
  21   10   34 1
  22   10   35 1
  23   11   12 1
  24   11   20 1
  25   12   13 1
  26   12   36 1
  27   12   37 1
  28   13   19 ar
  29   13   14 ar
  30   14   15 ar
  31   14   38 1
  32   15   16 ar
  33   15   39 1
  34   16   17 1
  35   16   18 ar
  36   18   19 ar
  37   18   40 1
  38   19   41 1
  39   20   42 1
  40   20   43 1
  41   21   22 2
  42   21   23 am
  43   23   24 am
  44   23   44 1
  45   24   25 2
  46   24   26 am
  47   26   45 1

@<TRIPOS>MOLECULE
ZINC000020489273
  44   46    0    0    0
SMALL
USER_CHARGES
NO_NAME
@<TRIPOS>ATOM
    1 C1       -0.0184     1.5028     0.0103 C.3    1 <0>      -0.1400
    2 C2        0.0021    -0.0041     0.0020 C.2    1 <0>       0.3100
    3 C3       -1.1561    -0.6982     0.0037 C.2    1 <0>      -0.8800
    4 S4       -2.7027     0.1458     0.0156 S.o2   1 <0>       2.7300
    5 O5       -3.5239    -0.5345     0.9548 O.2    1 <0>      -0.9500
    6 O6       -2.4028     1.5319     0.1059 O.2    1 <0>      -0.9800
    7 N7       -3.3992    -0.0861    -1.4688 N.am   1 <0>      -0.9900
    8 C8       -3.1440     0.8497    -2.5743 C.3    1 <0>       0.1200
    9 C9       -4.4927     1.2864    -3.1587 C.3    1 <0>      -0.1300
   10 C10      -5.3172     0.0418    -3.4976 C.3    1 <0>       0.0500
   11 N11      -5.5519    -0.7411    -2.2773 N.3    1 <0>      -0.5400
   12 C12      -6.4795    -1.8509    -2.5341 C.3    1 <0>       0.0900
   13 C13      -7.8404    -1.2998    -2.8738 C.ar   1 <0>      -0.0800
   14 C14      -8.7595    -1.0616    -1.8690 C.ar   1 <0>      -0.0700
   15 C15     -10.0078    -0.5562    -2.1793 C.ar   1 <0>      -0.1500
   16 C16     -10.3375    -0.2880    -3.4970 C.ar   1 <0>       0.0900
   17 F17     -11.5573     0.2065    -3.8015 F      1 <0>      -0.1400
   18 C18      -9.4159    -0.5266    -4.5025 C.ar   1 <0>      -0.1600
   19 C19      -8.1666    -1.0275    -4.1893 C.ar   1 <0>      -0.0900
   20 C20      -4.2818    -1.2353    -1.7141 C.3    1 <0>       0.3000
   21 C21      -1.1111    -2.1132    -0.0047 C.2    1 <0>       0.5600
   22 O22      -2.1424    -2.7608    -0.0038 O.2    1 <0>      -0.5800
   23 N23       0.0842    -2.7371    -0.0142 N.pl3  1 <0>      -0.6900
   24 C24       1.2235    -2.0204    -0.0156 C.2    1 <0>       0.6400
   25 O25       2.2941    -2.5967    -0.0242 O.2    1 <0>      -0.6100
   26 N26       1.1944    -0.6753    -0.0130 N.am   1 <0>      -0.6500
   27 H27       1.0042     1.8801     0.0026 H      1 <0>       0.0700
   28 H28      -0.5455     1.8639    -0.8728 H      1 <0>       0.1100
   29 H29      -0.5286     1.8543     0.9071 H      1 <0>       0.1100
   30 H30      -2.6062     1.7212    -2.2010 H      1 <0>       0.0900
   31 H31      -2.5528     0.3551    -3.3450 H      1 <0>       0.0600
   32 H32      -5.0287     1.8906    -2.4268 H      1 <0>       0.0800
   33 H33      -4.3258     1.8707    -4.0636 H      1 <0>       0.0800
   34 H34      -6.2735     0.3450    -3.9239 H      1 <0>       0.0800
   35 H35      -4.7746    -0.5671    -4.2208 H      1 <0>       0.0300
   36 H36      -6.1104    -2.4473    -3.3685 H      1 <0>       0.0500
   37 H37      -6.5526    -2.4766    -1.6446 H      1 <0>       0.0900
   38 H38      -8.5021    -1.2708    -0.8412 H      1 <0>       0.1400
   39 H39     -10.7260    -0.3708    -1.3943 H      1 <0>       0.1300
   40 H40      -9.6721    -0.3180    -5.5307 H      1 <0>       0.1300
   41 H41      -7.4474    -1.2133    -4.9733 H      1 <0>       0.1300
   42 H42      -3.8114    -1.9202    -2.4196 H      1 <0>       0.0500
   43 H43      -4.4756    -1.7523    -0.7743 H      1 <0>       0.1200
   44 H44       2.0264    -0.1767    -0.0144 H      1 <0>       0.4000
@<TRIPOS>BOND
   1    1    2 1
   2    1   27 1
   3    1   28 1
   4    1   29 1
   5    2   26 1
   6    2    3 2
   7    3    4 1
   8    3   21 1
   9    4    5 2
  10    4    6 2
  11    4    7 am
  12    7   20 1
  13    7    8 1
  14    8    9 1
  15    8   30 1
  16    8   31 1
  17    9   10 1
  18    9   32 1
  19    9   33 1
  20   10   11 1
  21   10   34 1
  22   10   35 1
  23   11   12 1
  24   11   20 1
  25   12   13 1
  26   12   36 1
  27   12   37 1
  28   13   19 ar
  29   13   14 ar
  30   14   15 ar
  31   14   38 1
  32   15   16 ar
  33   15   39 1
  34   16   17 1
  35   16   18 ar
  36   18   19 ar
  37   18   40 1
  38   19   41 1
  39   20   42 1
  40   20   43 1
  41   21   22 2
  42   21   23 1
  43   23   24 1
  44   24   25 2
  45   24   26 am
  46   26   44 1
@<TRIPOS>MOLECULE
ZINC000072433340
  52   55    0    0    0
SMALL
USER_CHARGES
NO_NAME
@<TRIPOS>ATOM
    1 C1        0.0015    -7.0958    -5.0291 C.3    1 <0>      -0.1200
    2 C2        0.0175    -6.3508    -3.7193 C.ar   1 <0>      -0.1000
    3 C3       -0.8439    -6.7246    -2.7038 C.ar   1 <0>      -0.1000
    4 C4       -0.8344    -6.0471    -1.5018 C.ar   1 <0>      -0.0900
    5 C5        0.0468    -4.9820    -1.3104 C.ar   1 <0>      -0.1000
    6 C6        0.0616    -4.2529    -0.0242 C.2    1 <0>       0.5600
    7 O7        0.1519    -3.0408    -0.0137 O.2    1 <0>      -0.5300
    8 N8       -0.0251    -4.9322     1.1366 N.am   1 <0>      -0.6000
    9 C9       -0.1468    -4.2162     2.4138 C.3    1 <0>       0.1100
   10 C10       0.9662    -4.6951     3.3536 C.3    1 <0>      -0.1100
   11 C11       0.9272    -6.2124     3.4531 C.3    1 <0>      -0.0700
   12 C12       1.9939    -6.7178     4.4479 C.3    1 <0>      -0.1000
   13 C13       1.2894    -6.5668     5.8141 C.3    1 <0>       0.0600
   14 H14       1.6025    -5.6385     6.2920 H      1 <0>       0.0700
   15 C15       1.6301    -7.7384     6.6986 C.2    1 <0>       0.4900
   16 O16       2.6045    -7.6872     7.4297 O.co2  1 <0>      -0.6900
   17 O17       0.9314    -8.7374     6.6831 O.co2  1 <0>      -0.6800
   18 N18      -0.1586    -6.5339     5.5583 N.am   1 <0>      -0.5800
   19 C19      -1.1182    -6.3929     6.4941 C.2    1 <0>       0.5700
   20 O20      -2.2862    -6.3789     6.1676 O.2    1 <0>      -0.5700
   21 C21      -0.7400    -6.2525     7.9461 C.3    1 <0>      -0.1800
   22 C22      -0.9883    -4.8982     8.6131 C.3    1 <0>      -0.1600
   23 C23      -1.8751    -6.0957     8.9598 C.3    1 <0>      -0.1500
   24 C24      -0.3873    -6.6809     4.1079 C.3    1 <0>       0.1200
   25 C25       1.1123    -6.8677     2.0929 C.3    1 <0>      -0.1200
   26 C26      -0.0055    -6.4014     1.1454 C.3    1 <0>       0.0900
   27 C27       0.9143    -4.6080    -2.3377 C.ar   1 <0>      -0.1000
   28 C28       0.8991    -5.2974    -3.5351 C.ar   1 <0>       0.0900
   29 F29       1.7381    -4.9380    -4.5311 F      1 <0>      -0.1300
   30 H30       0.7027    -7.9290    -4.9817 H      1 <0>       0.0800
   31 H31      -1.0023    -7.4759    -5.2187 H      1 <0>       0.0800
   32 H32       0.2927    -6.4213    -5.8343 H      1 <0>       0.0700
   33 H33      -1.5260    -7.5486    -2.8522 H      1 <0>       0.1400
   34 H34      -1.5081    -6.3405    -0.7103 H      1 <0>       0.1400
   35 H35      -0.0454    -3.1444     2.2432 H      1 <0>       0.0900
   36 H36      -1.1185    -4.4274     2.8602 H      1 <0>       0.0700
   37 H37       1.9334    -4.3814     2.9610 H      1 <0>       0.0700
   38 H38       0.8177    -4.2621     4.3429 H      1 <0>       0.0800
   39 H39       2.2390    -7.7619     4.2534 H      1 <0>       0.0800
   40 H40       2.8880    -6.0958     4.4039 H      1 <0>       0.0800
   41 H41       0.1402    -6.8142     8.2590 H      1 <0>       0.1300
   42 H42      -0.2713    -4.5684     9.3649 H      1 <0>       0.1000
   43 H43      -1.4252    -4.1086     8.0017 H      1 <0>       0.0900
   44 H44      -2.8955    -6.0941     8.5766 H      1 <0>       0.1000
   45 H45      -1.7415    -6.5539     9.9398 H      1 <0>       0.1000
   46 H46      -1.2164    -6.0496     3.7885 H      1 <0>       0.0700
   47 H47      -0.5849    -7.7234     3.8585 H      1 <0>       0.0700
   48 H48       2.0816    -6.5849     1.6823 H      1 <0>       0.0700
   49 H49       1.0659    -7.9512     2.2022 H      1 <0>       0.0800
   50 H50      -0.9646    -6.7830     1.4956 H      1 <0>       0.0800
   51 H51       0.1915    -6.7694     0.1385 H      1 <0>       0.0900
   52 H52       1.5986    -3.7846    -2.1957 H      1 <0>       0.1400
@<TRIPOS>BOND
   1    1    2 1
   2    1   30 1
   3    1   31 1
   4    1   32 1
   5    2   28 ar
   6    2    3 ar
   7    3    4 ar
   8    3   33 1
   9    4    5 ar
  10    4   34 1
  11    5    6 1
  12    5   27 ar
  13    6    7 2
  14    6    8 am
  15    8   26 1
  16    8    9 1
  17    9   10 1
  18    9   35 1
  19    9   36 1
  20   10   11 1
  21   10   37 1
  22   10   38 1
  23   11   24 1
  24   11   12 1
  25   11   25 1
  26   12   13 1
  27   12   39 1
  28   12   40 1
  29   13   14 1
  30   13   15 1
  31   13   18 1
  32   15   16 ar
  33   15   17 ar
  34   18   19 am
  35   18   24 1
  36   19   20 2
  37   19   21 1
  38   21   23 1
  39   21   22 1
  40   21   41 1
  41   22   23 1
  42   22   42 1
  43   22   43 1
  44   23   44 1
  45   23   45 1
  46   24   46 1
  47   24   47 1
  48   25   26 1
  49   25   48 1
  50   25   49 1
  51   26   50 1
  52   26   51 1
  53   27   28 ar
  54   27   52 1
  55   28   29 1
@<TRIPOS>MOLECULE
ZINC000072474429
  55   58    0    0    0
SMALL
USER_CHARGES
NO_NAME
@<TRIPOS>ATOM
    1 C1        0.1967    -7.1491     4.9486 C.3    1 <0>      -0.1200
    2 C2        0.1610    -6.3902     3.6471 C.ar   1 <0>      -0.0700
    3 C3        1.0334    -6.7289     2.6283 C.ar   1 <0>      -0.1200
    4 C4        1.0059    -6.0380     1.4342 C.ar   1 <0>      -0.0900
    5 C5        0.0955    -4.9955     1.2556 C.ar   1 <0>      -0.1300
    6 C6        0.0602    -4.2513    -0.0213 C.2    1 <0>       0.5600
    7 O7       -0.0642    -3.0421    -0.0168 O.2    1 <0>      -0.5400
    8 N8        0.1658    -4.9135    -1.1904 N.am   1 <0>      -0.6000
    9 C9        0.2673    -4.1785    -2.4586 C.3    1 <0>       0.1100
   10 C10      -0.8318    -4.6768    -3.4047 C.3    1 <0>      -0.1100
   11 C11      -0.7501    -6.1910    -3.5229 C.3    1 <0>      -0.0700
   12 C12      -1.8023    -6.7138    -4.5243 C.3    1 <0>      -0.1000
   13 C13      -1.1024    -6.5261    -5.8883 C.3    1 <0>       0.0600
   14 H14      -1.4415    -5.6011    -6.3547 H      1 <0>       0.0700
   15 C15      -1.4101    -7.6958    -6.7874 C.2    1 <0>       0.4900
   16 O16      -2.3855    -7.6629    -7.5181 O.co2  1 <0>      -0.6900
   17 O17      -0.6836    -8.6749    -6.7840 O.co2  1 <0>      -0.6800
   18 N18       0.3441    -6.4558    -5.6316 N.am   1 <0>      -0.5800
   19 C19       1.2994    -6.2762    -6.5653 C.2    1 <0>       0.5700
   20 O20       2.4665    -6.2335    -6.2383 O.2    1 <0>      -0.5700
   21 C21       0.9173    -6.1286    -8.0155 C.3    1 <0>      -0.1800
   22 C22       1.1274    -4.7596    -8.6656 C.3    1 <0>      -0.1600
   23 C23       2.0475    -5.9273    -9.0270 C.3    1 <0>      -0.1500
   24 C24       0.5769    -6.6142    -4.1831 C.3    1 <0>       0.1200
   25 C25      -0.9167    -6.8681    -2.1711 C.3    1 <0>      -0.1200
   26 C26       0.1876    -6.3824    -1.2175 C.3    1 <0>       0.1000
   27 C27      -0.7820    -4.6588     2.2878 C.ar   1 <0>      -0.0600
   28 C28      -0.7480    -5.3612     3.4744 C.ar   1 <0>      -0.0900
   29 C29      -1.6949    -4.9995     4.5896 C.3    1 <0>      -0.1200
   30 H30      -0.4811    -8.0008     4.8912 H      1 <0>       0.0700
   31 H31       1.2105    -7.5035     5.1348 H      1 <0>       0.0700
   32 H32      -0.1135    -6.4920     5.7610 H      1 <0>       0.0700
   33 H33       1.7377    -7.5356     2.7680 H      1 <0>       0.1300
   34 H34       1.6877    -6.3032     0.6398 H      1 <0>       0.1300
   35 H35       0.1358    -3.1122    -2.2748 H      1 <0>       0.0900
   36 H36       1.2445    -4.3568    -2.9074 H      1 <0>       0.0700
   37 H37      -1.8074    -4.3953    -3.0085 H      1 <0>       0.0700
   38 H38      -0.6956    -4.2276    -4.3885 H      1 <0>       0.0800
   39 H39      -2.0180    -7.7668    -4.3428 H      1 <0>       0.0800
   40 H40      -2.7135    -6.1178    -4.4729 H      1 <0>       0.0800
   41 H41       0.0532    -6.7108    -8.3357 H      1 <0>       0.1300
   42 H42       0.4014    -4.4408    -9.4135 H      1 <0>       0.1000
   43 H43       1.5420    -3.9657    -8.0443 H      1 <0>       0.0900
   44 H44       3.0675    -5.9017    -8.6434 H      1 <0>       0.1000
   45 H45       1.9268    -6.3768   -10.0126 H      1 <0>       0.1000
   46 H46       1.3880    -5.9639    -3.8556 H      1 <0>       0.0700
   47 H47       0.8038    -7.6538    -3.9466 H      1 <0>       0.0700
   48 H48      -1.8935    -6.6178    -1.7572 H      1 <0>       0.0700
   49 H49      -0.8399    -7.9484    -2.2938 H      1 <0>       0.0800
   50 H50       1.1570    -6.7325    -1.5721 H      1 <0>       0.0700
   51 H51       0.0011    -6.7682    -0.2153 H      1 <0>       0.0900
   52 H52      -1.4887    -3.8529     2.1560 H      1 <0>       0.1300
   53 H53      -2.6149    -5.5749     4.4861 H      1 <0>       0.0700
   54 H54      -1.2301    -5.2269     5.5490 H      1 <0>       0.0700
   55 H55      -1.9246    -3.9351     4.5403 H      1 <0>       0.0700
@<TRIPOS>BOND
   1    1    2 1
   2    1   30 1
   3    1   31 1
   4    1   32 1
   5    2   28 ar
   6    2    3 ar
   7    3    4 ar
   8    3   33 1
   9    4    5 ar
  10    4   34 1
  11    5    6 1
  12    5   27 ar
  13    6    7 2
  14    6    8 am
  15    8   26 1
  16    8    9 1
  17    9   10 1
  18    9   35 1
  19    9   36 1
  20   10   11 1
  21   10   37 1
  22   10   38 1
  23   11   24 1
  24   11   12 1
  25   11   25 1
  26   12   13 1
  27   12   39 1
  28   12   40 1
  29   13   14 1
  30   13   15 1
  31   13   18 1
  32   15   16 ar
  33   15   17 ar
  34   18   19 am
  35   18   24 1
  36   19   20 2
  37   19   21 1
  38   21   23 1
  39   21   22 1
  40   21   41 1
  41   22   23 1
  42   22   42 1
  43   22   43 1
  44   23   44 1
  45   23   45 1
  46   24   46 1
  47   24   47 1
  48   25   26 1
  49   25   48 1
  50   25   49 1
  51   26   50 1
  52   26   51 1
  53   27   28 ar
  54   27   52 1
  55   28   29 1
  56   29   53 1
  57   29   54 1
  58   29   55 1
@<TRIPOS>MOLECULE
ZINC000082120926
  52   55    0    0    0
SMALL
USER_CHARGES
NO_NAME
@<TRIPOS>ATOM
    1 C1       -0.0184     1.5028     0.0103 C.3    1 <0>      -0.1700
    2 C2        0.0021    -0.0041     0.0020 C.2    1 <0>       0.5500
    3 O3        0.0203    -0.6160     1.0489 O.2    1 <0>      -0.5800
    4 N4        0.0001    -0.6716    -1.1688 N.am   1 <0>      -0.5900
    5 C5        0.0127    -2.1393    -1.3216 C.3    1 <0>       0.1200
    6 C6        0.5944    -2.3834    -2.7281 C.3    1 <0>      -0.0700
    7 C7        0.0126    -1.2053    -3.5385 C.3    1 <0>      -0.0900
    8 C8       -0.0215    -0.0576    -2.5052 C.3    1 <0>       0.0600
    9 H9        0.8546     0.5790    -2.6293 H      1 <0>       0.0700
   10 C10      -1.2763     0.7572    -2.6855 C.2    1 <0>       0.4900
   11 O11      -2.1591     0.7111    -1.8458 O.co2  1 <0>      -0.6800
   12 O12      -1.4088     1.4625    -3.6711 O.co2  1 <0>      -0.6900
   13 C13       2.1135    -2.3134    -2.6998 C.3    1 <0>      -0.1100
   14 C14       2.6604    -2.4889    -4.1214 C.3    1 <0>       0.1100
   15 N15       2.0999    -3.7211    -4.6929 N.am   1 <0>      -0.5900
   16 C16       2.9099    -4.6769    -5.1897 C.2    1 <0>       0.5800
   17 O17       4.1166    -4.5235    -5.1674 O.2    1 <0>      -0.5400
   18 C18       2.3353    -5.9048    -5.7585 C.ar   1 <0>      -0.1400
   19 C19       2.0004    -5.9844    -7.1794 C.ar   1 <0>      -0.0100
   20 C20       2.2136    -4.9024    -8.0415 C.ar   1 <0>      -0.1100
   21 C21       1.8881    -5.0172    -9.3605 C.ar   1 <0>      -0.1000
   22 C22       1.3453    -6.1971    -9.8626 C.ar   1 <0>      -0.1200
   23 C23       1.1247    -7.2685    -9.0512 C.ar   1 <0>      -0.1000
   24 C24       1.4492    -7.1857    -7.6868 C.ar   1 <0>      -0.0600
   25 C25       1.2358    -8.2722    -6.8190 C.ar   1 <0>      -0.0700
   26 C26       1.5526    -8.1828    -5.5016 C.ar   1 <0>      -0.1400
   27 C27       2.1029    -7.0222    -4.9550 C.ar   1 <0>       0.1500
   28 O28       2.4040    -6.9767    -3.6343 O.3    1 <0>      -0.4900
   29 C29       0.6408    -3.8932    -4.7129 C.3    1 <0>       0.1100
   30 C30       0.1048    -3.7101    -3.2880 C.3    1 <0>      -0.1100
   31 H31       1.0042     1.8801     0.0026 H      1 <0>       0.0800
   32 H32      -0.5455     1.8639    -0.8728 H      1 <0>       0.1000
   33 H33      -0.5286     1.8543     0.9071 H      1 <0>       0.0800
   34 H34       0.6497    -2.5943    -0.5632 H      1 <0>       0.0700
   35 H35      -1.0003    -2.5364    -1.2557 H      1 <0>       0.0600
   36 H36       0.6634    -0.9544    -4.3760 H      1 <0>       0.0800
   37 H37      -0.9942    -1.4363    -3.8865 H      1 <0>       0.0700
   38 H38       2.4254    -1.3454    -2.3076 H      1 <0>       0.0800
   39 H39       2.5019    -3.1064    -2.0607 H      1 <0>       0.0700
   40 H40       2.3679    -1.6359    -4.7337 H      1 <0>       0.0800
   41 H41       3.7475    -2.5627    -4.0885 H      1 <0>       0.0900
   42 H42       2.6333    -3.9817    -7.6638 H      1 <0>       0.1300
   43 H43       2.0530    -4.1817   -10.0247 H      1 <0>       0.1300
   44 H44       1.0952    -6.2635   -10.9112 H      1 <0>       0.1300
   45 H45       0.7030    -8.1772    -9.4547 H      1 <0>       0.1300
   46 H46       0.8144    -9.1885    -7.2053 H      1 <0>       0.1300
   47 H47       1.3765    -9.0335    -4.8599 H      1 <0>       0.1400
   48 H48       3.3028    -7.2661    -3.4256 H      1 <0>       0.4000
   49 H49       0.1936    -3.1476    -5.3703 H      1 <0>       0.0800
   50 H50       0.3954    -4.8933    -5.0701 H      1 <0>       0.0800
   51 H51       0.4625    -4.5245    -2.6580 H      1 <0>       0.0700
   52 H52      -0.9850    -3.7168    -3.3062 H      1 <0>       0.0800
@<TRIPOS>BOND
   1    1    2 1
   2    1   31 1
   3    1   32 1
   4    1   33 1
   5    2    3 2
   6    2    4 am
   7    4    8 1
   8    4    5 1
   9    5    6 1
  10    5   34 1
  11    5   35 1
  12    6   30 1
  13    6    7 1
  14    6   13 1
  15    7    8 1
  16    7   36 1
  17    7   37 1
  18    8    9 1
  19    8   10 1
  20   10   11 ar
  21   10   12 ar
  22   13   14 1
  23   13   38 1
  24   13   39 1
  25   14   15 1
  26   14   40 1
  27   14   41 1
  28   15   16 am
  29   15   29 1
  30   16   17 2
  31   16   18 1
  32   18   27 ar
  33   18   19 ar
  34   19   24 ar
  35   19   20 ar
  36   20   21 ar
  37   20   42 1
  38   21   22 ar
  39   21   43 1
  40   22   23 ar
  41   22   44 1
  42   23   24 ar
  43   23   45 1
  44   24   25 ar
  45   25   26 ar
  46   25   46 1
  47   26   27 ar
  48   26   47 1
  49   27   28 1
  50   28   48 1
  51   29   30 1
  52   29   49 1
  53   29   50 1
  54   30   51 1
  55   30   52 1

@<TRIPOS>MOLECULE
ZINC000082120926
  51   54    0    0    0
SMALL
USER_CHARGES
NO_NAME
@<TRIPOS>ATOM
    1 C1       -0.0184     1.5028     0.0103 C.3    1 <0>      -0.1700
    2 C2        0.0021    -0.0041     0.0020 C.2    1 <0>       0.5400
    3 O3        1.0605    -0.5961    -0.0113 O.2    1 <0>      -0.5800
    4 N4       -1.1558    -0.6938     0.0094 N.am   1 <0>      -0.5800
    5 C5       -1.2806    -2.1641     0.0086 C.3    1 <0>       0.1200
    6 C6       -2.6820    -2.4397    -0.5712 C.3    1 <0>      -0.0700
    7 C7       -3.5149    -1.2726     0.0011 C.3    1 <0>      -0.0900
    8 C8       -2.5036    -0.1052     0.0259 C.3    1 <0>       0.0600
    9 H9       -2.6397     0.5218    -0.8553 H      1 <0>       0.0700
   10 C10      -2.6997     0.7161     1.2741 C.2    1 <0>       0.4900
   11 O11      -1.8594     0.6931     2.1573 O.co2  1 <0>      -0.6800
   12 O12      -3.6986     1.4036     1.4009 O.co2  1 <0>      -0.7000
   13 C13      -2.6549    -2.3814    -2.0908 C.3    1 <0>      -0.1100
   14 C14      -4.0728    -2.5884    -2.6364 C.3    1 <0>       0.1100
   15 N15      -4.6208    -3.8267    -2.0659 N.am   1 <0>      -0.6100
   16 C16      -5.0991    -4.7983    -2.8682 C.2    1 <0>       0.6200
   17 O17      -5.0795    -4.6543    -4.0761 O.2    1 <0>      -0.5700
   18 C18      -5.6445    -6.0322    -2.2837 C.ar   1 <0>      -0.3400
   19 C19      -7.0637    -6.1361    -1.9483 C.ar   1 <0>       0.0500
   20 C20      -7.9462    -5.0725    -2.1702 C.ar   1 <0>      -0.1400
   21 C21      -9.2629    -5.2098    -1.8438 C.ar   1 <0>      -0.1100
   22 C22      -9.7425    -6.3946    -1.2916 C.ar   1 <0>      -0.1900
   23 C23      -8.9109    -7.4485    -1.0622 C.ar   1 <0>      -0.0800
   24 C24      -7.5482    -7.3424    -1.3874 C.ar   1 <0>      -0.1400
   25 C25      -6.6599    -8.4104    -1.1652 C.ar   1 <0>      -0.0800
   26 C26      -5.3443    -8.2984    -1.4827 C.ar   1 <0>      -0.1800
   27 C27      -4.8199    -7.1322    -2.0423 C.ar   1 <0>       0.3000
   28 O28      -3.5002    -7.0639    -2.3438 O.3    1 <0>      -0.7000
   29 C29      -4.6377    -3.9874    -0.6054 C.3    1 <0>       0.1200
   30 C30      -3.2167    -3.7729    -0.0709 C.3    1 <0>      -0.1200
   31 H31       1.0042     1.8801     0.0026 H      1 <0>       0.0700
   32 H32      -0.5455     1.8639    -0.8728 H      1 <0>       0.0700
   33 H33      -0.5286     1.8543     0.9071 H      1 <0>       0.1100
   34 H34      -0.5135    -2.6098    -0.6248 H      1 <0>       0.0700
   35 H35      -1.2073    -2.5518     1.0247 H      1 <0>       0.0600
   36 H36      -4.3570    -1.0430    -0.6518 H      1 <0>       0.0800
   37 H37      -3.8586    -1.5020     1.0097 H      1 <0>       0.0700
   38 H38      -2.2811    -1.4087    -2.4104 H      1 <0>       0.0700
   39 H39      -2.0007    -3.1652    -2.4728 H      1 <0>       0.0700
   40 H40      -4.7012    -1.7449    -2.3507 H      1 <0>       0.0600
   41 H41      -4.0383    -2.6703    -3.7227 H      1 <0>       0.0900
   42 H42      -7.5861    -4.1481    -2.5973 H      1 <0>       0.1100
   43 H43      -9.9428    -4.3884    -2.0155 H      1 <0>       0.1000
   44 H44     -10.7896    -6.4790    -1.0410 H      1 <0>       0.1000
   45 H45      -9.2970    -8.3614    -0.6333 H      1 <0>       0.1100
   46 H46      -7.0287    -9.3305    -0.7365 H      1 <0>       0.1000
   47 H47      -4.6866    -9.1353    -1.2997 H      1 <0>       0.1000
   48 H48      -5.3094    -3.2509    -0.1643 H      1 <0>       0.0600
   49 H49      -4.9759    -4.9921    -0.3520 H      1 <0>       0.0900
   50 H50      -2.5712    -4.5779    -0.4220 H      1 <0>       0.0700
   51 H51      -3.2350    -3.7711     1.0189 H      1 <0>       0.0700
@<TRIPOS>BOND
   1    1    2 1
   2    1   31 1
   3    1   32 1
   4    1   33 1
   5    2    3 2
   6    2    4 am
   7    4    8 1
   8    4    5 1
   9    5    6 1
  10    5   34 1
  11    5   35 1
  12    6   30 1
  13    6    7 1
  14    6   13 1
  15    7    8 1
  16    7   36 1
  17    7   37 1
  18    8    9 1
  19    8   10 1
  20   10   11 ar
  21   10   12 ar
  22   13   14 1
  23   13   38 1
  24   13   39 1
  25   14   15 1
  26   14   40 1
  27   14   41 1
  28   15   16 am
  29   15   29 1
  30   16   17 2
  31   16   18 1
  32   18   27 ar
  33   18   19 ar
  34   19   24 ar
  35   19   20 ar
  36   20   21 ar
  37   20   42 1
  38   21   22 ar
  39   21   43 1
  40   22   23 ar
  41   22   44 1
  42   23   24 ar
  43   23   45 1
  44   24   25 ar
  45   25   26 ar
  46   25   46 1
  47   26   27 ar
  48   26   47 1
  49   27   28 1
  50   29   30 1
  51   29   48 1
  52   29   49 1
  53   30   50 1
  54   30   51 1
@<TRIPOS>MOLECULE
ZINC000028294918
33    36    1     0     0
SMALL
USER_CHARGES
@<TRIPOS>ATOM
1      O1      0.0021   -0.0041    0.0020 O.co2    1 ZINC000028294918   -0.6800
2      C2     -0.0145    1.2150    0.0087 C.2      1 ZINC000028294918    0.4900
3      O3      1.0330    1.8389    0.0021 O.co2    1 ZINC000028294918   -0.6800
4      C4     -1.3296    1.9507    0.0190 C.3      1 ZINC000028294918    0.0300
5      N5     -2.4301    0.9837    0.0189 N.am     1 ZINC000028294918   -0.5500
6      C6     -2.9882    0.4964   -1.1169 C.2      1 ZINC000028294918    0.5500
7      O7     -2.5794    0.6228   -2.2512 O.2      1 ZINC000028294918   -0.4400
8      C8     -4.2179   -0.2318   -0.6689 C.3      1 ZINC000028294918   -0.1500
9      H9     -5.0072    0.5098   -0.5458 H        1 ZINC000028294918    0.1700
10     S10    -4.8371   -1.5033   -1.7571 S.3      1 ZINC000028294918    0.0500
11     C11    -3.8545   -2.9241   -1.3476 C.2      1 ZINC000028294918    0.0800
12     C12    -3.0664   -2.9392   -0.2644 C.2      1 ZINC000028294918   -0.1800
13     S13    -2.3068   -4.5411   -0.2403 S.3      1 ZINC000028294918    0.0800
14     C14    -3.0726   -5.0896   -1.6797 C.2      1 ZINC000028294918    0.4800
15     O15    -2.9436   -6.1787   -2.2106 O.2      1 ZINC000028294918   -0.4800
16     N16    -3.8388   -4.0767   -2.0959 N.am     1 ZINC000028294918   -0.6200
17     C17    -2.8240   -1.8501    0.7203 C.3      1 ZINC000028294918    0.0500
18     H18    -1.8423   -1.4225    0.5164 H        1 ZINC000028294918    0.1500
19     C19    -2.7859   -2.4640    2.0960 C.2      1 ZINC000028294918   -0.1800
20     C20    -1.7484   -2.4118    2.9329 C.2      1 ZINC000028294918   -0.1100
21     C21    -1.9449   -3.0490    4.1459 C.2      1 ZINC000028294918   -0.1300
22     C22    -3.1418   -3.6188    4.2941 C.2      1 ZINC000028294918   -0.2100
23     S23    -4.1052   -3.3524    2.8469 S.3      1 ZINC000028294918    0.1000
24     C24    -3.8354   -0.7257    0.7331 C.3      1 ZINC000028294918   -0.0900
25     H25    -4.6878   -0.9187    1.3844 H        1 ZINC000028294918    0.1500
26     C26    -2.9786    0.4909    1.1491 C.2      1 ZINC000028294918    0.5400
27     O27    -2.8395    0.9291    2.2708 O.2      1 ZINC000028294918   -0.4600
28     H28    -1.3917    2.5717    0.9126 H        1 ZINC000028294918    0.0900
29     H29    -1.4001    2.5813   -0.8673 H        1 ZINC000028294918    0.0900
30     H30    -4.3696   -4.1531   -2.9042 H        1 ZINC000028294918    0.4200
31     H31    -0.8250   -1.9106    2.6828 H        1 ZINC000028294918    0.1500
32     H32    -1.1863   -3.0827    4.9139 H        1 ZINC000028294918    0.1400
33     H33    -3.4705   -4.1580    5.1703 H        1 ZINC000028294918    0.1600
@<TRIPOS>BOND
1     1     2     ar
2     2     3     ar
3     2     4     1
4     4     5     1
5     4     28    1
6     4     29    1
7     5     26    am
8     5     6     am
9     6     7     2
10    6     8     1
11    8     9     1
12    8     24    1
13    8     10    1
14    10    11    1
15    11    16    1
16    11    12    2
17    12    13    1
18    12    17    1
19    13    14    1
20    14    15    2
21    14    16    am
22    16    30    1
23    17    18    1
24    17    19    1
25    17    24    1
26    19    23    1
27    19    20    2
28    20    21    1
29    20    31    1
30    21    22    2
31    21    32    1
32    22    23    1
33    22    33    1
34    24    25    1
35    24    26    1
36    26    27    2
@<TRIPOS>SUBSTRUCTURE
1   ZINC000028294918 1     RESIDUE    1   A     ZIN   1
