@<TRIPOS>MOLECULE
ZINC000003819346
  31   34    0    0    0
SMALL
USER_CHARGES
NO_NAME
@<TRIPOS>ATOM
    1 O1        0.0021    -0.0041     0.0020 O.co2  1 <0>      -0.6900
    2 C2       -0.0160     1.3287     0.0093 C.2    1 <0>       0.4700
    3 O3        1.1292     2.0108     0.0021 O.co2  1 <0>      -0.6700
    4 C4       -1.2467     2.0172     0.0189 C.2    1 <0>       0.0500
    5 C5       -2.4070     1.3368     0.0264 C.2    1 <0>      -0.1300
    6 S6       -3.7227     2.5212     0.0725 S.3    1 <0>      -0.1400
    7 C7       -2.6258     3.9730     0.1135 C.3    1 <0>       0.1200
    8 H8       -2.7968     4.6373     0.9607 H      1 <0>       0.1500
    9 C9       -2.4599     4.6643    -1.2120 C.2    1 <0>      -0.1900
   10 C10      -3.1956     5.4305    -2.0433 C.2    1 <0>       0.0500
   11 C11      -4.5812     5.7778    -1.6906 C.2    1 <0>       0.0600
   12 N12      -5.2261     5.4181    -0.6011 N.2    1 <0>      -0.2600
   13 N13      -6.4338     5.8897    -0.6096 N.pl3  1 <0>      -0.2900
   14 C14      -7.3912     5.6249     0.4696 C.3    1 <0>       0.1200
   15 C15      -8.5171     6.6551     0.4865 C.3    1 <0>      -0.1000
   16 S16      -9.2610     6.7373    -1.1717 S.3    1 <0>      -0.2300
   17 C17      -7.8652     7.3574    -2.1600 C.3    1 <0>      -0.0100
   18 C18      -6.6204     6.6116    -1.7373 C.2    1 <0>       0.0100
   19 C19      -5.4726     6.5676    -2.4552 C.2    1 <0>      -0.1900
   20 C20      -1.1107     4.1005    -1.1593 C.2    1 <0>       0.5300
   21 O21      -0.1548     4.2161    -1.9045 O.2    1 <0>      -0.4200
   22 N22      -1.2751     3.4061     0.0266 N.am   1 <0>      -0.4400
   23 H23      -2.5164     0.2625     0.0071 H      1 <0>       0.1900
   24 H24      -2.7677     5.7890    -2.9678 H      1 <0>       0.1600
   25 H25      -7.8191     4.6322     0.3301 H      1 <0>       0.1000
   26 H26      -6.8675     5.6543     1.4251 H      1 <0>       0.1100
   27 H27      -9.2739     6.3573     1.2122 H      1 <0>       0.1400
   28 H28      -8.1146     7.6318     0.7552 H      1 <0>       0.1000
   29 H29      -8.0575     7.1822    -3.2185 H      1 <0>       0.1300
   30 H30      -7.7333     8.4245    -1.9812 H      1 <0>       0.1100
   31 H31      -5.2795     7.0342    -3.4099 H      1 <0>       0.1600
@<TRIPOS>BOND
   1    1    2 ar
   2    2    3 ar
   3    2    4 1
   4    4   22 1
   5    4    5 2
   6    5    6 1
   7    5   23 1
   8    6    7 1
   9    7    8 1
  10    7   22 1
  11    7    9 1
  12    9   10 2
  13    9   20 1
  14   10   11 1
  15   10   24 1
  16   11   19 1
  17   11   12 2
  18   12   13 1
  19   13   18 1
  20   13   14 1
  21   14   15 1
  22   14   25 1
  23   14   26 1
  24   15   16 1
  25   15   27 1
  26   15   28 1
  27   16   17 1
  28   17   18 1
  29   17   29 1
  30   17   30 1
  31   18   19 2
  32   19   31 1
  33   20   21 2
  34   20   22 am
@<TRIPOS>MOLECULE
ZINC000013586481
  35   39    0    0    0
SMALL
USER_CHARGES
NO_NAME
@<TRIPOS>ATOM
    1 C1       -0.0184     1.5028     0.0103 C.3    1 <0>      -0.1100
    2 C2        0.0021    -0.0041     0.0020 C.ar   1 <0>      -0.0700
    3 C3        0.0058    -0.6949    -1.1976 C.ar   1 <0>      -0.0900
    4 C4        0.0239    -2.0703    -1.2183 C.ar   1 <0>      -0.0900
    5 C5        0.0394    -2.8032    -0.0222 C.ar   1 <0>       0.1000
    6 C6        0.0358    -2.0915     1.1736 C.ar   1 <0>      -0.1300
    7 C7        0.0229    -0.7063     1.1913 C.ar   1 <0>      -0.0600
    8 S8        0.0574    -3.2947     2.4687 S.3    1 <0>       0.1800
    9 C9        0.0703    -4.6871     1.3766 C.2    1 <0>       0.1700
   10 N10       0.0867    -5.9982     1.3479 N.2    1 <0>      -0.4100
   11 C11       0.0857    -6.4050     0.0521 C.2    1 <0>       0.0500
   12 C12       0.1003    -7.7948    -0.4185 C.2    1 <0>       0.0500
   13 C13       0.1172    -8.8106     0.4739 C.2    1 <0>      -0.1900
   14 C14       0.1406   -10.2342     0.4229 C.2    1 <0>       0.5400
   15 O15       0.2075   -11.0211    -0.5044 O.2    1 <0>      -0.4300
   16 N16       0.0627   -10.4098     1.7718 N.am   1 <0>      -0.4600
   17 C17      -1.0728   -11.0052     2.3071 C.2    1 <0>       0.0400
   18 C18      -1.2278   -12.4062     2.2686 C.2    1 <0>       0.4700
   19 O19      -2.3199   -12.9704     2.7841 O.co2  1 <0>      -0.6900
   20 O20      -0.2822   -13.1664     1.7165 O.co2  1 <0>      -0.6700
   21 C21      -2.0219   -10.2320     2.8627 C.2    1 <0>      -0.1300
   22 S22      -1.4696    -8.5524     2.7675 S.3    1 <0>      -0.1300
   23 C23       0.1264    -8.9515     1.9771 C.3    1 <0>       0.1400
   24 H24       1.0034    -8.5697     2.4996 H      1 <0>       0.1600
   25 C25       0.0679    -5.2909    -0.7330 C.2    1 <0>       0.0000
   26 N26       0.0580    -4.1950     0.1113 N.pl3  1 <0>      -0.4200
   27 H27       1.0042     1.8801     0.0026 H      1 <0>       0.0800
   28 H28      -0.5455     1.8639    -0.8728 H      1 <0>       0.0700
   29 H29      -0.5286     1.8543     0.9071 H      1 <0>       0.0700
   30 H30      -0.0059    -0.1475    -2.1285 H      1 <0>       0.1400
   31 H31       0.0259    -2.5910    -2.1645 H      1 <0>       0.1300
   32 H32       0.0207    -0.1769     2.1327 H      1 <0>       0.1400
   33 H33       0.0976    -8.0064    -1.4776 H      1 <0>       0.1600
   34 H34      -2.9532   -10.5737     3.2898 H      1 <0>       0.1900
   35 H35       0.0625    -5.2679    -1.8127 H      1 <0>       0.1900
@<TRIPOS>BOND
   1    1    2 1
   2    1   27 1
   3    1   28 1
   4    1   29 1
   5    2    7 ar
   6    2    3 ar
   7    3    4 ar
   8    3   30 1
   9    4    5 ar
  10    4   31 1
  11    5   26 1
  12    5    6 ar
  13    6    7 ar
  14    6    8 1
  15    7   32 1
  16    8    9 1
  17    9   26 1
  18    9   10 2
  19   10   11 1
  20   11   12 1
  21   11   25 2
  22   12   13 2
  23   12   33 1
  24   13   23 1
  25   13   14 1
  26   14   15 2
  27   14   16 am
  28   16   23 1
  29   16   17 1
  30   17   18 1
  31   17   21 2
  32   18   19 ar
  33   18   20 ar
  34   21   22 1
  35   21   34 1
  36   22   23 1
  37   23   24 1
  38   25   26 1
  39   25   35 1
@<TRIPOS>MOLECULE
ZINC000013586482
  36   40    0    0    0
SMALL
USER_CHARGES
NO_NAME
@<TRIPOS>ATOM
    1 C1       -0.0173     1.4248     0.0099 C.3    1 <0>       0.0200
    2 O2        0.0021    -0.0041     0.0020 O.3    1 <0>      -0.3100
    3 C3        0.6060    -0.6073    -1.0561 C.ar   1 <0>       0.1500
    4 C4        1.1756     0.1562    -2.0669 C.ar   1 <0>      -0.1800
    5 C5        1.7891    -0.4448    -3.1409 C.ar   1 <0>      -0.0500
    6 C6        1.8533    -1.8427    -3.2395 C.ar   1 <0>       0.0600
    7 C7        1.2778    -2.5932    -2.2185 C.ar   1 <0>      -0.1000
    8 C8        0.6641    -1.9897    -1.1333 C.ar   1 <0>      -0.0900
    9 S9        1.5295    -4.2902    -2.6455 S.3    1 <0>       0.2000
   10 C10       2.3842    -3.9384    -4.1545 C.2    1 <0>       0.1700
   11 N11       2.9712    -4.5009    -5.1837 N.2    1 <0>      -0.4100
   12 C12       3.4333    -3.5251    -6.0076 C.2    1 <0>       0.0500
   13 C13       4.1506    -3.7277    -7.2715 C.2    1 <0>       0.0500
   14 C14       4.4062    -4.9810    -7.7106 C.2    1 <0>      -0.1900
   15 C15       5.0528    -5.5737    -8.8331 C.2    1 <0>       0.5400
   16 O16       5.6567    -5.0979    -9.7778 O.2    1 <0>      -0.4300
   17 N17       4.7615    -6.8578    -8.4827 N.am   1 <0>      -0.4600
   18 C18       3.9073    -7.5973    -9.2912 C.2    1 <0>       0.0400
   19 C19       4.3854    -8.1902   -10.4779 C.2    1 <0>       0.4700
   20 O20       3.5599    -8.8983   -11.2486 O.co2  1 <0>      -0.6900
   21 O21       5.6627    -8.0425   -10.8290 O.co2  1 <0>      -0.6700
   22 C22       2.6204    -7.7423    -8.9304 C.2    1 <0>      -0.1300
   23 S23       2.3989    -6.9071    -7.3849 S.3    1 <0>      -0.1300
   24 C24       4.1418    -6.3878    -7.2305 C.3    1 <0>       0.1400
   25 H25       4.6279    -6.6882    -6.3023 H      1 <0>       0.1600
   26 C26       3.1105    -2.3237    -5.4502 C.2    1 <0>       0.0000
   27 N27       2.4416    -2.5870    -4.2686 N.pl3  1 <0>      -0.4100
   28 H28       1.0053     1.8021     0.0021 H      1 <0>       0.0600
   29 H29      -0.5445     1.7859    -0.8732 H      1 <0>       0.0600
   30 H30      -0.5275     1.7763     0.9067 H      1 <0>       0.1100
   31 H31       1.1359     1.2339    -2.0089 H      1 <0>       0.1400
   32 H32       2.2259     0.1661    -3.9171 H      1 <0>       0.1400
   33 H33       0.2248    -2.5947    -0.3540 H      1 <0>       0.1500
   34 H34       4.4744    -2.8759    -7.8512 H      1 <0>       0.1600
   35 H35       1.8591    -8.2725    -9.4834 H      1 <0>       0.1900
   36 H36       3.3352    -1.3482    -5.8556 H      1 <0>       0.1900
@<TRIPOS>BOND
   1    1    2 1
   2    1   28 1
   3    1   29 1
   4    1   30 1
   5    2    3 1
   6    3    8 ar
   7    3    4 ar
   8    4    5 ar
   9    4   31 1
  10    5    6 ar
  11    5   32 1
  12    6   27 1
  13    6    7 ar
  14    7    8 ar
  15    7    9 1
  16    8   33 1
  17    9   10 1
  18   10   27 1
  19   10   11 2
  20   11   12 1
  21   12   13 1
  22   12   26 2
  23   13   14 2
  24   13   34 1
  25   14   24 1
  26   14   15 1
  27   15   16 2
  28   15   17 am
  29   17   24 1
  30   17   18 1
  31   18   19 1
  32   18   22 2
  33   19   20 ar
  34   19   21 ar
  35   22   23 1
  36   22   35 1
  37   23   24 1
  38   24   25 1
  39   26   27 1
  40   26   36 1
@<TRIPOS>MOLECULE
ZINC000034717628
  33   36    0    0    0
SMALL
USER_CHARGES
NO_NAME
@<TRIPOS>ATOM
    1 O1        0.0021    -0.0041     0.0020 O.co2  1 <0>      -0.6900
    2 C2       -0.0160     1.3287     0.0093 C.2    1 <0>       0.4700
    3 O3        1.1292     2.0108     0.0021 O.co2  1 <0>      -0.6700
    4 C4       -1.2467     2.0172     0.0189 C.2    1 <0>       0.0500
    5 C5       -2.4070     1.3368     0.0264 C.2    1 <0>      -0.1300
    6 S6       -3.7227     2.5212     0.0725 S.3    1 <0>      -0.1400
    7 C7       -2.6258     3.9730     0.1135 C.3    1 <0>       0.1200
    8 H8       -2.7968     4.6373     0.9607 H      1 <0>       0.1500
    9 C9       -2.4599     4.6643    -1.2120 C.2    1 <0>      -0.1900
   10 C10      -3.1956     5.4305    -2.0433 C.2    1 <0>       0.0500
   11 C11      -4.5812     5.7778    -1.6906 C.2    1 <0>       0.0600
   12 N12      -5.2261     5.4180    -0.6009 N.2    1 <0>      -0.2500
   13 N13      -6.4324     5.8913    -0.6090 N.pl3  1 <0>      -0.3000
   14 C14      -7.3924     5.6345     0.4700 C.3    1 <0>       0.1300
   15 C15      -8.5174     6.6660     0.4715 C.3    1 <0>      -0.6200
   16 S16      -9.2662     6.7235    -1.1846 S.o2   1 <0>       2.4200
   17 O17      -9.5543     5.3966    -1.6035 O.2    1 <0>      -0.9100
   18 O18     -10.3020     7.6963    -1.1855 O.2    1 <0>      -0.9200
   19 C19      -7.8666     7.3550    -2.1589 C.3    1 <0>      -0.5300
   20 C20      -6.6204     6.6120    -1.7376 C.2    1 <0>       0.0100
   21 C21      -5.4726     6.5677    -2.4553 C.2    1 <0>      -0.1800
   22 C22      -1.1107     4.1005    -1.1593 C.2    1 <0>       0.5300
   23 O23      -0.1548     4.2161    -1.9045 O.2    1 <0>      -0.4200
   24 N24      -1.2751     3.4061     0.0266 N.am   1 <0>      -0.4400
   25 H25      -2.5164     0.2625     0.0071 H      1 <0>       0.1900
   26 H26      -2.7677     5.7890    -2.9678 H      1 <0>       0.1600
   27 H27      -7.8201     4.6407     0.3378 H      1 <0>       0.1200
   28 H28      -6.8720     5.6731     1.4270 H      1 <0>       0.1300
   29 H29      -9.2727     6.3812     1.2040 H      1 <0>       0.1700
   30 H30      -8.1133     7.6464     0.7237 H      1 <0>       0.1500
   31 H31      -8.0527     7.1881    -3.2199 H      1 <0>       0.1600
   32 H32      -7.7397     8.4211    -1.9711 H      1 <0>       0.1500
   33 H33      -5.2794     7.0343    -3.4100 H      1 <0>       0.1700
@<TRIPOS>BOND
   1    1    2 ar
   2    2    3 ar
   3    2    4 1
   4    4   24 1
   5    4    5 2
   6    5    6 1
   7    5   25 1
   8    6    7 1
   9    7    8 1
  10    7   24 1
  11    7    9 1
  12    9   10 2
  13    9   22 1
  14   10   11 1
  15   10   26 1
  16   11   21 1
  17   11   12 2
  18   12   13 1
  19   13   20 1
  20   13   14 1
  21   14   15 1
  22   14   27 1
  23   14   28 1
  24   15   16 1
  25   15   29 1
  26   15   30 1
  27   16   17 2
  28   16   18 2
  29   16   19 1
  30   19   20 1
  31   19   31 1
  32   19   32 1
  33   20   21 2
  34   21   33 1
  35   22   23 2
  36   22   24 am
@<TRIPOS>MOLECULE
ZINC000013442990
  30   32    0    0    0
SMALL
USER_CHARGES
NO_NAME
@<TRIPOS>ATOM
    1 O1        0.0023    -0.0040     0.0259 O.co2  1 <0>      -0.6300
    2 C2       -0.0145     1.2196     0.0087 C.2    1 <0>       0.5100
    3 O3        1.0366     1.8457    -0.0218 O.co2  1 <0>      -0.6500
    4 C4       -1.2971     1.9370     0.0187 C.2    1 <0>       0.1500
    5 C5       -2.4419     1.2641    -0.0743 C.2    1 <0>      -0.1900
    6 Br6      -2.2890    -0.6091    -0.2832 Br     1 <0>       0.0000
    7 C7       -3.8319     1.8076    -0.0333 C.3    1 <0>      -0.5400
    8 S8       -3.9012     3.5735    -0.4580 S.o2   1 <0>       2.4300
    9 O9       -3.6133     3.7259    -1.8412 O.2    1 <0>      -0.9200
   10 O10      -5.0969     4.1281     0.0731 O.2    1 <0>      -0.9000
   11 C11      -2.4834     4.1850     0.5112 C.3    1 <0>      -0.3300
   12 H12      -2.6760     4.2404     1.5827 H      1 <0>       0.1700
   13 C13      -1.7752     5.3743    -0.0556 C.2    1 <0>      -0.1300
   14 C14      -2.0535     6.6576    -0.3543 C.2    1 <0>       0.0000
   15 C15      -3.4036     7.1951    -0.1091 C.ar   1 <0>       0.1300
   16 C16      -3.6882     8.5249    -0.4260 C.ar   1 <0>      -0.1500
   17 C17      -4.9618     9.0144    -0.1899 C.ar   1 <0>      -0.0800
   18 C18      -5.9092     8.1603     0.3549 C.ar   1 <0>      -0.1700
   19 C19      -5.5586     6.8519     0.6455 C.ar   1 <0>       0.1300
   20 N20      -4.3432     6.4087     0.4073 N.ar   1 <0>      -0.4700
   21 C21      -0.6254     4.4580    -0.1270 C.2    1 <0>       0.5800
   22 O22       0.5585     4.6511    -0.3314 O.2    1 <0>      -0.4400
   23 N23      -1.3231     3.3331     0.1320 N.am   1 <0>      -0.5500
   24 H24      -4.4491     1.2508    -0.7384 H      1 <0>       0.1500
   25 H25      -4.2348     1.6701     0.9701 H      1 <0>       0.1400
   26 H26      -1.2873     7.2928    -0.7736 H      1 <0>       0.1700
   27 H27      -2.9260     9.1625    -0.8490 H      1 <0>       0.1400
   28 H28      -5.2118    10.0386    -0.4243 H      1 <0>       0.1400
   29 H29      -6.9112     8.5123     0.5512 H      1 <0>       0.1400
   30 H30      -6.2948     6.1852     1.0697 H      1 <0>       0.1700
@<TRIPOS>BOND
   1    1    2 ar
   2    2    3 ar
   3    2    4 1
   4    4   23 1
   5    4    5 2
   6    5    6 1
   7    5    7 1
   8    7    8 1
   9    7   24 1
  10    7   25 1
  11    8    9 2
  12    8   10 2
  13    8   11 1
  14   11   12 1
  15   11   23 1
  16   11   13 1
  17   13   14 2
  18   13   21 1
  19   14   15 1
  20   14   26 1
  21   15   20 ar
  22   15   16 ar
  23   16   17 ar
  24   16   27 1
  25   17   18 ar
  26   17   28 1
  27   18   19 ar
  28   18   29 1
  29   19   20 ar
  30   19   30 1
  31   21   22 2
  32   21   23 am
@<TRIPOS>MOLECULE
ZINC000013586480
  32   36    0    0    0
SMALL
USER_CHARGES
NO_NAME
@<TRIPOS>ATOM
    1 O1        0.0021    -0.0041     0.0020 O.co2  1 <0>      -0.6900
    2 C2       -0.0160     1.3288     0.0093 C.2    1 <0>       0.4700
    3 O3        1.1292     2.0109     0.0021 O.co2  1 <0>      -0.6700
    4 C4       -1.2467     2.0171     0.0189 C.2    1 <0>       0.0400
    5 C5       -2.4066     1.3366     0.0263 C.2    1 <0>      -0.1300
    6 S6       -3.7227     2.5205     0.0715 S.3    1 <0>      -0.1300
    7 C7       -2.6272     3.9732     0.1122 C.3    1 <0>       0.1200
    8 H8       -2.8033     4.6476     0.9502 H      1 <0>       0.1600
    9 C9       -2.4349     4.6423    -1.2233 C.2    1 <0>      -0.1900
   10 C10      -3.1594     5.4027    -2.0750 C.2    1 <0>       0.0500
   11 C11      -4.5426     5.7622    -1.7423 C.2    1 <0>       0.0600
   12 C12      -5.3839     6.5137    -2.5073 C.2    1 <0>       0.0000
   13 N13      -6.5835     6.6084    -1.8248 N.pl3  1 <0>      -0.4200
   14 C14      -6.4234     5.9103    -0.6715 C.2    1 <0>       0.1700
   15 N15      -5.2160     5.4008    -0.6195 N.2    1 <0>      -0.4100
   16 S16      -7.9521     6.0231     0.2127 S.3    1 <0>       0.2000
   17 C17      -8.7578     7.0131    -1.0105 C.ar   1 <0>      -0.1300
   18 C18     -10.0324     7.5513    -1.0792 C.ar   1 <0>      -0.0500
   19 C19     -10.4031     8.3026    -2.1787 C.ar   1 <0>      -0.0200
   20 Cl20    -11.9973     8.9829    -2.2764 Cl     1 <0>      -0.0500
   21 C21      -9.4921     8.5088    -3.2019 C.ar   1 <0>      -0.0800
   22 C22      -8.2260     7.9751    -3.1354 C.ar   1 <0>      -0.0800
   23 C23      -7.8295     7.2101    -2.0284 C.ar   1 <0>       0.1100
   24 C24      -1.1279     4.0919    -1.1588 C.2    1 <0>       0.5300
   25 O25      -0.1748     4.2006    -1.9094 O.2    1 <0>      -0.4300
   26 N26      -1.2747     3.4060     0.0266 N.am   1 <0>      -0.4400
   27 H27      -2.5157     0.2623     0.0076 H      1 <0>       0.1900
   28 H28      -2.7200     5.7455    -3.0001 H      1 <0>       0.1600
   29 H29      -5.1564     6.9535    -3.4671 H      1 <0>       0.1900
   30 H30     -10.7347     7.3841    -0.2760 H      1 <0>       0.1500
   31 H31      -9.7796     9.0951    -4.0622 H      1 <0>       0.1500
   32 H32      -7.5302     8.1471    -3.9433 H      1 <0>       0.1500
@<TRIPOS>BOND
   1    1    2 ar
   2    2    3 ar
   3    2    4 1
   4    4   26 1
   5    4    5 2
   6    5    6 1
   7    5   27 1
   8    6    7 1
   9    7    8 1
  10    7   26 1
  11    7    9 1
  12    9   10 2
  13    9   24 1
  14   10   11 1
  15   10   28 1
  16   11   15 1
  17   11   12 2
  18   12   13 1
  19   12   29 1
  20   13   23 1
  21   13   14 1
  22   14   15 2
  23   14   16 1
  24   16   17 1
  25   17   23 ar
  26   17   18 ar
  27   18   19 ar
  28   18   30 1
  29   19   20 1
  30   19   21 ar
  31   21   22 ar
  32   21   31 1
  33   22   23 ar
  34   22   32 1
  35   24   25 2
  36   24   26 am
@<TRIPOS>MOLECULE
ZINC000034717630
47    52    1     0     0
SMALL
USER_CHARGES
@<TRIPOS>ATOM
1      O1      0.0021   -0.0041    0.0020 O.co2    1 ZINC000034717630   -0.6900
2      C2     -0.0160    1.3288    0.0093 C.2      1 ZINC000034717630    0.4700
3      O3      1.1292    2.0109    0.0021 O.co2    1 ZINC000034717630   -0.6700
4      C4     -1.2467    2.0171    0.0189 C.2      1 ZINC000034717630    0.0500
5      C5     -2.4066    1.3366    0.0264 C.2      1 ZINC000034717630   -0.1200
6      S6     -3.7227    2.5204    0.0724 S.3      1 ZINC000034717630   -0.1500
7      C7     -2.6273    3.9732    0.1132 C.3      1 ZINC000034717630    0.1000
8      H8     -2.8032    4.6476    0.9513 H        1 ZINC000034717630    0.1500
9      C9     -2.4346    4.6421   -1.2224 C.2      1 ZINC000034717630   -0.2300
10     C10    -3.1613    5.4051   -2.0765 C.2      1 ZINC000034717630    0.0700
11     C11    -4.4959    5.7524   -1.7550 C.2      1 ZINC000034717630   -0.2000
12     C12    -5.3275    6.5074   -2.5324 C.2      1 ZINC000034717630   -0.0800
13     C13    -6.5819    6.7005   -1.9891 C.2      1 ZINC000034717630   -0.1200
14     C14    -6.7567    6.1059   -0.7848 C.2      1 ZINC000034717630   -0.2100
15     C15    -8.0501    6.1792    0.0054 C.3      1 ZINC000034717630   -0.0400
16     C16    -8.9015    7.3126   -0.5777 C.3      1 ZINC000034717630    0.0500
17     N17    -8.9676    7.1629   -2.0383 N.3      1 ZINC000034717630   -0.4500
18     C18   -10.0057    7.9279   -2.5732 C.2      1 ZINC000034717630    0.0200
19     C19   -10.3235    7.9976   -3.8707 C.2      1 ZINC000034717630   -0.1600
20     C20   -11.3983    8.8247   -4.1790 C.2      1 ZINC000034717630   -0.1200
21     C21   -11.9462    9.4251   -3.1045 C.2      1 ZINC000034717630   -0.2000
22     C22   -13.1259   10.3716   -3.1825 C.3      1 ZINC000034717630   -0.0800
23     C23   -13.2911   10.8004   -4.6463 C.3      1 ZINC000034717630    0.0700
24     O24   -13.2346    9.6410   -5.4822 O.3      1 ZINC000034717630   -0.3800
25     C25   -11.9342    9.0551   -5.5859 C.3      1 ZINC000034717630    0.1200
26     S26   -11.1008    8.9419   -1.6443 S.3      1 ZINC000034717630    0.0900
27     C27    -7.6841    7.5051   -2.6658 C.3      1 ZINC000034717630    0.1300
28     S28    -5.3501    5.2751   -0.2962 S.3      1 ZINC000034717630    0.2400
29     C29    -1.1298    4.0923   -1.1587 C.2      1 ZINC000034717630    0.5300
30     O30    -0.1772    4.2011   -1.9103 O.2      1 ZINC000034717630   -0.4300
31     N31    -1.2747    3.4060    0.0266 N.am     1 ZINC000034717630   -0.4400
32     H32    -2.5156    0.2623    0.0071 H        1 ZINC000034717630    0.2000
33     H33    -2.7220    5.7478   -3.0017 H        1 ZINC000034717630    0.1600
34     H34    -5.0301    6.9172   -3.4864 H        1 ZINC000034717630    0.1500
35     H35    -8.5872    5.2345   -0.0793 H        1 ZINC000034717630    0.1000
36     H36    -7.8302    6.3856    1.0528 H        1 ZINC000034717630    0.0900
37     H37    -9.9074    7.2642   -0.1606 H        1 ZINC000034717630    0.0900
38     H38    -8.4490    8.2727   -0.3299 H        1 ZINC000034717630    0.0600
39     H39    -9.7821    7.4491   -4.6274 H        1 ZINC000034717630    0.1400
40     H40   -14.0288    9.8642   -2.8428 H        1 ZINC000034717630    0.0900
41     H41   -12.9380   11.2470   -2.5608 H        1 ZINC000034717630    0.0900
42     H42   -14.2535   11.2958   -4.7747 H        1 ZINC000034717630    0.1000
43     H43   -12.4880   11.4854   -4.9183 H        1 ZINC000034717630    0.0600
44     H44   -11.2695    9.7295   -6.1258 H        1 ZINC000034717630    0.0700
45     H45   -12.0010    8.1039   -6.1139 H        1 ZINC000034717630    0.1100
46     H46    -7.4890    8.5703   -2.5420 H        1 ZINC000034717630    0.0600
47     H47    -7.7181    7.2578   -3.7268 H        1 ZINC000034717630    0.1000
@<TRIPOS>BOND
1     1     2     ar
2     2     3     ar
3     2     4     1
4     4     31    1
5     4     5     2
6     5     6     1
7     5     32    1
8     6     7     1
9     7     8     1
10    7     31    1
11    7     9     1
12    9     10    2
13    9     29    1
14    10    11    1
15    10    33    1
16    11    28    1
17    11    12    2
18    12    13    1
19    12    34    1
20    13    27    1
21    13    14    2
22    14    15    1
23    14    28    1
24    15    16    1
25    15    35    1
26    15    36    1
27    16    17    1
28    16    37    1
29    16    38    1
30    17    18    1
31    17    27    1
32    18    26    1
33    18    19    2
34    19    20    1
35    19    39    1
36    20    25    1
37    20    21    2
38    21    22    1
39    21    26    1
40    22    23    1
41    22    40    1
42    22    41    1
43    23    24    1
44    23    42    1
45    23    43    1
46    24    25    1
47    25    44    1
48    25    45    1
49    27    46    1
50    27    47    1
51    29    30    2
52    29    31    am
@<TRIPOS>SUBSTRUCTURE
1   ZINC000034717630 1     RESIDUE    1   A     ZIN   1
@<TRIPOS>MOLECULE
ZINC000013442993
30    32    1     0     0
SMALL
USER_CHARGES
@<TRIPOS>ATOM
1      O1      0.0024   -0.0039    0.0324 O.co2    1 ZINC000013442993   -0.6100
2      C2     -0.0145    1.2195    0.0087 C.2      1 ZINC000013442993    0.5100
3      O3      1.0364    1.8454   -0.0283 O.co2    1 ZINC000013442993   -0.6400
4      C4     -1.2978    1.9373    0.0187 C.2      1 ZINC000013442993    0.1400
5      C5     -2.4419    1.2646   -0.0742 C.2      1 ZINC000013442993   -0.2200
6      I6     -2.2719   -0.8104   -0.3073 I        1 ZINC000013442993    0.0300
7      C7     -3.8320    1.8075   -0.0321 C.3      1 ZINC000013442993   -0.5300
8      S8     -3.9022    3.5736   -0.4559 S.o2     1 ZINC000013442993    2.4200
9      O9     -3.6156    3.7269   -1.8392 O.2      1 ZINC000013442993   -0.9200
10     O10    -5.0974    4.1277    0.0767 O.2      1 ZINC000013442993   -0.9000
11     C11    -2.4835    4.1848    0.5125 C.3      1 ZINC000013442993   -0.3200
12     H12    -2.6752    4.2399    1.5841 H        1 ZINC000013442993    0.1700
13     C13    -1.7757    5.3742   -0.0547 C.2      1 ZINC000013442993   -0.1300
14     C14    -2.0543    6.6574   -0.3533 C.2      1 ZINC000013442993    0.0000
15     C15    -3.4044    7.1948   -0.1075 C.ar     1 ZINC000013442993    0.1300
16     C16    -3.6893    8.5246   -0.4243 C.ar     1 ZINC000013442993   -0.1500
17     C17    -4.9628    9.0139   -0.1876 C.ar     1 ZINC000013442993   -0.0800
18     C18    -5.9099    8.1597    0.3575 C.ar     1 ZINC000013442993   -0.1700
19     C19    -5.5590    6.8513    0.6480 C.ar     1 ZINC000013442993    0.1400
20     N20    -4.3437    6.4082    0.4093 N.ar     1 ZINC000013442993   -0.4700
21     C21    -0.6261    4.4578   -0.1273 C.2      1 ZINC000013442993    0.5800
22     O22     0.5577    4.6509   -0.3326 O.2      1 ZINC000013442993   -0.4400
23     N23    -1.3237    3.3329    0.1319 N.am     1 ZINC000013442993   -0.5500
24     H24    -4.4494    1.2509   -0.7372 H        1 ZINC000013442993    0.1400
25     H25    -4.2344    1.6693    0.9714 H        1 ZINC000013442993    0.1400
26     H26    -1.2884    7.2928   -0.7729 H        1 ZINC000013442993    0.1700
27     H27    -2.9273    9.1623   -0.8476 H        1 ZINC000013442993    0.1400
28     H28    -5.2131   10.0380   -0.4220 H        1 ZINC000013442993    0.1400
29     H29    -6.9118    8.5115    0.5542 H        1 ZINC000013442993    0.1400
30     H30    -6.2949    6.1845    1.0725 H        1 ZINC000013442993    0.1700
@<TRIPOS>BOND
1     1     2     ar
2     2     3     ar
3     2     4     1
4     4     23    1
5     4     5     2
6     5     6     1
7     5     7     1
8     7     8     1
9     7     24    1
10    7     25    1
11    8     9     2
12    8     10    2
13    8     11    1
14    11    12    1
15    11    23    1
16    11    13    1
17    13    14    2
18    13    21    1
19    14    15    1
20    14    26    1
21    15    20    ar
22    15    16    ar
23    16    17    ar
24    16    27    1
25    17    18    ar
26    17    28    1
27    18    19    ar
28    18    29    1
29    19    20    ar
30    19    30    1
31    21    22    2
32    21    23    am
@<TRIPOS>SUBSTRUCTURE
1   ZINC000013442993 1     RESIDUE    1   A     ZIN   1
@<TRIPOS>MOLECULE
ZINC000027196434
31    34    1     0     0
SMALL
USER_CHARGES
@<TRIPOS>ATOM
1      O1      0.9759    8.9211   -5.8305 O.co2    1 ZINC000027196434   -0.6900
2      C2      0.3169    7.7694   -5.7039 C.2      1 ZINC000027196434    0.4700
3      O3      0.8675    6.6354   -6.1372 O.co2    1 ZINC000027196434   -0.6700
4      C4     -0.9602    7.7497   -5.1063 C.2      1 ZINC000027196434    0.0500
5      C5     -1.5229    8.8893   -4.6665 C.2      1 ZINC000027196434   -0.1200
6      S6     -3.1196    8.4833   -4.0172 S.3      1 ZINC000027196434   -0.1500
7      C7     -2.9988    6.7080   -4.3993 C.3      1 ZINC000027196434    0.1000
8      H8     -3.8164    6.3207   -5.0071 H        1 ZINC000027196434    0.1600
9      C9     -2.6030    5.8474   -3.2283 C.2      1 ZINC000027196434   -0.2100
10     C10    -3.1610    5.4050   -2.0753 C.2      1 ZINC000027196434    0.0600
11     C11    -4.4587    5.8394   -1.7033 C.2      1 ZINC000027196434   -0.0100
12     C12    -5.3260    6.6117   -2.4545 C.2      1 ZINC000027196434    0.0400
13     N13    -6.4373    6.7892   -1.7351 N.2      1 ZINC000027196434   -0.4700
14     C14    -6.3223    6.1808   -0.5892 C.2      1 ZINC000027196434    0.1900
15     C15    -7.3317    6.1119    0.5338 C.3      1 ZINC000027196434    0.1500
16     O16    -6.9222    5.0686    1.4286 O.3      1 ZINC000027196434   -0.3700
17     C17    -5.5501    5.1454    1.8251 C.3      1 ZINC000027196434    0.0500
18     C18    -4.6489    4.8049    0.6304 C.3      1 ZINC000027196434    0.0600
19     N19    -5.1133    5.5745   -0.5266 N.pl3    1 ZINC000027196434   -0.4400
20     C20    -1.3664    5.7215   -3.9115 C.2      1 ZINC000027196434    0.5300
21     O21    -0.3690    5.0730   -3.6498 O.2      1 ZINC000027196434   -0.4300
22     N22    -1.6539    6.5539   -4.9703 N.am     1 ZINC000027196434   -0.4400
23     H23    -1.0807    9.8740   -4.7025 H        1 ZINC000027196434    0.2000
24     H24    -2.6175    4.7216   -1.4398 H        1 ZINC000027196434    0.1500
25     H25    -5.1383    7.0015   -3.4441 H        1 ZINC000027196434    0.1800
26     H26    -7.3590    7.0636    1.0644 H        1 ZINC000027196434    0.0900
27     H27    -8.3184    5.8854    0.1297 H        1 ZINC000027196434    0.1300
28     H28    -5.3282    6.1550    2.1709 H        1 ZINC000027196434    0.0700
29     H29    -5.3654    4.4368    2.6325 H        1 ZINC000027196434    0.1200
30     H30    -3.6168    5.0690    0.8610 H        1 ZINC000027196434    0.1100
31     H31    -4.7164    3.7395    0.4104 H        1 ZINC000027196434    0.1000
@<TRIPOS>BOND
1     1     2     ar
2     2     3     ar
3     2     4     1
4     4     22    1
5     4     5     2
6     5     6     1
7     5     23    1
8     6     7     1
9     7     8     1
10    7     22    1
11    7     9     1
12    9     10    2
13    9     20    1
14    10    11    1
15    10    24    1
16    11    19    1
17    11    12    2
18    12    13    1
19    12    25    1
20    13    14    2
21    14    19    1
22    14    15    1
23    15    16    1
24    15    26    1
25    15    27    1
26    16    17    1
27    17    18    1
28    17    28    1
29    17    29    1
30    18    19    1
31    18    30    1
32    18    31    1
33    20    21    2
34    20    22    am
@<TRIPOS>SUBSTRUCTURE
1   ZINC000027196434 1     RESIDUE    1   A     ZIN   1
@<TRIPOS>MOLECULE
ZINC000072175702
38    39    1     0     0
SMALL
USER_CHARGES
@<TRIPOS>ATOM
1      C1     -0.0075    1.4251    0.0044 C.3      1 ZINC000072175702    0.0400
2      O2      0.0144   -0.0037   -0.0050 O.3      1 ZINC000072175702   -0.2200
3      N3      0.6665   -0.5772    1.1135 N.2      1 ZINC000072175702   -0.3000
4      C4      0.7542   -1.8744    1.2233 C.2      1 ZINC000072175702    0.1900
5      C5      1.5455   -2.4733    2.3247 C.2      1 ZINC000072175702    0.5800
6      O6      1.6272   -3.6813    2.4269 O.2      1 ZINC000072175702   -0.5000
7      N7      2.1742   -1.6778    3.2126 N.am     1 ZINC000072175702   -0.6700
8      C8      2.9561   -2.2697    4.3010 C.3      1 ZINC000072175702   -0.4800
9      P9      4.7081   -2.3682    3.8067 P.3      1 ZINC000072175702    2.1900
10     O10     4.8245   -3.1407    2.4738 O.co2    1 ZINC000072175702   -1.0400
11     O11     5.2732   -0.9416    3.6262 O.co2    1 ZINC000072175702   -1.0500
12     O12     5.5451   -3.1367    4.9473 O.3      1 ZINC000072175702   -0.6600
13     C13     6.8452   -3.3568    4.6244 C.ar     1 ZINC000072175702    0.2100
14     C14     7.2063   -4.5246    3.9626 C.ar     1 ZINC000072175702   -0.1400
15     C15     8.5233   -4.7535    3.6319 C.ar     1 ZINC000072175702   -0.0200
16     C16     9.4994   -3.8093    3.9624 C.ar     1 ZINC000072175702   -0.0900
17     C17    10.8701   -4.0430    3.6200 C.1      1 ZINC000072175702    0.2700
18     N18    11.9575   -4.2284    3.3483 N.1      1 ZINC000072175702   -0.4200
19     C19     9.1324   -2.6338    4.6290 C.ar     1 ZINC000072175702    0.1600
20     F20    10.0707   -1.7167    4.9511 F        1 ZINC000072175702   -0.1300
21     C21     7.8088   -2.4117    4.9512 C.ar     1 ZINC000072175702   -0.1700
22     C22     0.0671   -2.7437    0.2530 C.2      1 ZINC000072175702   -0.2000
23     C23     0.4307   -4.0186   -0.0571 C.2      1 ZINC000072175702   -0.0600
24     C24    -0.3705   -4.6278   -0.9965 C.2      1 ZINC000072175702   -0.1200
25     C25    -1.3786   -3.8765   -1.4582 C.2      1 ZINC000072175702   -0.1600
26     Cl26   -2.5404   -4.3868   -2.6428 Cl       1 ZINC000072175702   -0.0200
27     S27    -1.3558   -2.2996   -0.6807 S.3      1 ZINC000072175702    0.2300
28     H28     1.0145    1.8041    0.0101 H        1 ZINC000072175702    0.0600
29     H29    -0.5241    1.7864   -0.8848 H        1 ZINC000072175702    0.1000
30     H30    -0.5296    1.7745    0.8952 H        1 ZINC000072175702    0.0500
31     H31     2.1090   -0.7135    3.1310 H        1 ZINC000072175702    0.4100
32     H32     2.8645   -1.6498    5.1929 H        1 ZINC000072175702    0.0900
33     H33     2.5820   -3.2710    4.5144 H        1 ZINC000072175702    0.1000
34     H34     6.4522   -5.2545    3.7075 H        1 ZINC000072175702    0.1500
35     H35     8.8017   -5.6617    3.1180 H        1 ZINC000072175702    0.1500
36     H36     7.5234   -1.5059    5.4654 H        1 ZINC000072175702    0.1600
37     H37     1.2780   -4.5113    0.3964 H        1 ZINC000072175702    0.1700
38     H38    -0.1983   -5.6382   -1.3368 H        1 ZINC000072175702    0.1500
@<TRIPOS>BOND
1     1     2     1
2     1     28    1
3     1     29    1
4     1     30    1
5     2     3     1
6     3     4     2
7     4     5     1
8     4     22    1
9     5     6     2
10    5     7     am
11    7     8     1
12    7     31    1
13    8     9     1
14    8     32    1
15    8     33    1
16    9     10    ar
17    9     11    ar
18    9     12    1
19    12    13    1
20    13    21    ar
21    13    14    ar
22    14    15    ar
23    14    34    1
24    15    16    ar
25    15    35    1
26    16    17    1
27    16    19    ar
28    17    18    3
29    19    20    1
30    19    21    ar
31    21    36    1
32    22    27    1
33    22    23    2
34    23    24    1
35    23    37    1
36    24    25    2
37    24    38    1
38    25    26    1
39    25    27    1
@<TRIPOS>SUBSTRUCTURE
1   ZINC000072175702 1     RESIDUE    1   A     ZIN   1
@<TRIPOS>MOLECULE
ZINC000013442965
52    54    1     0     0
SMALL
USER_CHARGES
@<TRIPOS>ATOM
1      N1     -0.0166    1.3264   -0.0561 N.pl3    1 ZINC000013442965   -0.7900
2      C2      0.0015   -0.0054   -0.0493 C.cat    1 ZINC000013442965    0.7400
3      N3      1.1638   -0.6557   -0.0629 N.pl3    1 ZINC000013442965   -0.7900
4      H4      1.9971   -0.1594   -0.0777 H        1 ZINC000013442965    0.4400
5      H5      1.1770   -1.6256   -0.0579 H        1 ZINC000013442965    0.4400
6      N6     -1.1736   -0.7052   -0.0283 N.pl3    1 ZINC000013442965   -0.6900
7      C7     -2.4520    0.0101   -0.0134 C.3      1 ZINC000013442965    0.0800
8      C8     -3.6012   -0.9997    0.0088 C.3      1 ZINC000013442965    0.1100
9      N9     -4.8796   -0.2844    0.0237 N.am     1 ZINC000013442965   -0.7400
10     C10    -6.0374   -0.9740    0.0444 C.2      1 ZINC000013442965    0.5600
11     O11    -6.0209   -2.1907    0.0506 O.2      1 ZINC000013442965   -0.5300
12     C12    -7.3162   -0.2585    0.0593 C.2      1 ZINC000013442965   -0.3100
13     C13    -8.4797   -0.9515    0.0801 C.2      1 ZINC000013442965    0.0700
14     C14    -9.7133   -0.2612    0.0945 C.2      1 ZINC000013442965   -0.2300
15     C15   -10.8258   -1.0233   -0.0004 C.2      1 ZINC000013442965    0.2200
16     C16   -10.7132   -2.4800   -0.1939 C.2      1 ZINC000013442965    0.5300
17     O17   -10.7518   -3.2302    0.7717 O.co2    1 ZINC000013442965   -0.6400
18     O18   -10.5811   -2.9391   -1.3201 O.co2    1 ZINC000013442965   -0.6500
19     N19   -12.0738   -0.4249    0.0862 N.am     1 ZINC000013442965   -0.5500
20     C20   -13.3357   -0.6475    0.4349 C.2      1 ZINC000013442965    0.5800
21     O21   -13.9695   -1.6751    0.5858 O.2      1 ZINC000013442965   -0.4100
22     C22   -13.7082    0.7688    0.5777 C.2      1 ZINC000013442965   -0.1400
23     C23   -14.7297    1.4906    1.0777 C.2      1 ZINC000013442965    0.0100
24     C24   -15.8821    0.8087    1.6929 C.ar     1 ZINC000013442965    0.1200
25     C25   -16.9410    1.5619    2.2044 C.ar     1 ZINC000013442965   -0.1400
26     C26   -18.0166    0.9058    2.7789 C.ar     1 ZINC000013442965   -0.0800
27     C27   -17.9997   -0.4804    2.8239 C.ar     1 ZINC000013442965   -0.1600
28     C28   -16.9165   -1.1651    2.2973 C.ar     1 ZINC000013442965    0.1100
29     N29   -15.9085   -0.5194    1.7520 N.ar     1 ZINC000013442965   -0.4400
30     C30   -12.3987    1.0162   -0.1021 C.3      1 ZINC000013442965   -0.3400
31     H31   -12.4813    1.3348   -1.1412 H        1 ZINC000013442965    0.1800
32     S32   -11.1785    1.9683    0.8610 S.o2     1 ZINC000013442965    2.4000
33     O33   -11.2469    3.3327    0.4698 O.2      1 ZINC000013442965   -0.9200
34     O34   -11.3084    1.6269    2.2342 O.2      1 ZINC000013442965   -0.9000
35     C35    -9.6370    1.2250    0.2186 C.3      1 ZINC000013442965   -0.5200
36     H36     0.8167    1.8227   -0.0710 H        1 ZINC000013442965    0.4400
37     H37    -0.8631    1.8000   -0.0503 H        1 ZINC000013442965    0.4400
38     H38    -1.1604   -1.6751   -0.0234 H        1 ZINC000013442965    0.4400
39     H39    -2.5052    0.6406    0.8741 H        1 ZINC000013442965    0.1000
40     H40    -2.5313    0.6312   -0.9056 H        1 ZINC000013442965    0.1000
41     H41    -3.5480   -1.6303   -0.8787 H        1 ZINC000013442965    0.0800
42     H42    -3.5219   -1.6208    0.9010 H        1 ZINC000013442965    0.0800
43     H43    -4.8928    0.6855    0.0188 H        1 ZINC000013442965    0.4000
44     H44    -7.3308    0.8214    0.0538 H        1 ZINC000013442965    0.1200
45     H45    -8.4651   -2.0314    0.0856 H        1 ZINC000013442965    0.1400
46     H46   -14.7042    2.5692    1.0276 H        1 ZINC000013442965    0.1600
47     H47   -16.9211    2.6405    2.1530 H        1 ZINC000013442965    0.1400
48     H48   -18.8499    1.4611    3.1833 H        1 ZINC000013442965    0.1400
49     H49   -18.8235   -1.0212    3.2658 H        1 ZINC000013442965    0.1400
50     H50   -16.9014   -2.2445    2.3313 H        1 ZINC000013442965    0.1600
51     H51    -8.8132    1.4943    0.8796 H        1 ZINC000013442965    0.1500
52     H52    -9.4373    1.6289   -0.7739 H        1 ZINC000013442965    0.1400
@<TRIPOS>BOND
1     1     2     ar
2     1     36    1
3     1     37    1
4     2     3     ar
5     2     6     ar
6     3     4     1
7     3     5     1
8     6     7     1
9     6     38    1
10    7     8     1
11    7     39    1
12    7     40    1
13    8     9     1
14    8     41    1
15    8     42    1
16    9     10    am
17    9     43    1
18    10    11    2
19    10    12    1
20    12    13    2
21    12    44    1
22    13    14    1
23    13    45    1
24    14    35    1
25    14    15    2
26    15    16    1
27    15    19    1
28    16    17    ar
29    16    18    ar
30    19    30    1
31    19    20    am
32    20    21    2
33    20    22    1
34    22    23    2
35    22    30    1
36    23    24    1
37    23    46    1
38    24    29    ar
39    24    25    ar
40    25    26    ar
41    25    47    1
42    26    27    ar
43    26    48    1
44    27    28    ar
45    27    49    1
46    28    29    ar
47    28    50    1
48    30    31    1
49    30    32    1
50    32    33    2
51    32    34    2
52    32    35    1
53    35    51    1
54    35    52    1
@<TRIPOS>SUBSTRUCTURE
1   ZINC000013442965 1     RESIDUE    1   A     ZIN   1
@<TRIPOS>MOLECULE
ZINC000003819351
  31   34    0    0    0
SMALL
USER_CHARGES
NO_NAME
@<TRIPOS>ATOM
    1 O1        0.0021    -0.0041     0.0020 O.co2  1 <0>      -0.6900
    2 C2       -0.0160     1.3287     0.0093 C.2    1 <0>       0.4700
    3 O3        1.1292     2.0108     0.0021 O.co2  1 <0>      -0.6700
    4 C4       -1.2467     2.0172     0.0189 C.2    1 <0>       0.0500
    5 C5       -2.4070     1.3368     0.0264 C.2    1 <0>      -0.1300
    6 S6       -3.7227     2.5212     0.0725 S.3    1 <0>      -0.1400
    7 C7       -2.6258     3.9730     0.1135 C.3    1 <0>       0.1200
    8 H8       -2.7968     4.6373     0.9607 H      1 <0>       0.1500
    9 C9       -2.4599     4.6643    -1.2120 C.2    1 <0>      -0.2000
   10 C10      -3.1956     5.4305    -2.0433 C.2    1 <0>       0.0600
   11 C11      -4.5812     5.7778    -1.6906 C.2    1 <0>       0.0400
   12 N12      -5.2272     5.4156    -0.5960 N.2    1 <0>      -0.2400
   13 N13      -6.4155     5.8918    -0.6070 N.pl3  1 <0>      -0.2800
   14 C14      -7.4586     5.7304     0.4171 C.3    1 <0>       0.0900
   15 C15      -8.5309     6.8008     0.1802 C.3    1 <0>       0.0500
   16 O16      -8.9174     6.8042    -1.1968 O.3    1 <0>      -0.3700
   17 C17      -7.9075     7.3090    -2.0826 C.3    1 <0>       0.1300
   18 C18      -6.6130     6.6119    -1.7485 C.2    1 <0>      -0.0400
   19 C19      -5.4736     6.5701    -2.4588 C.2    1 <0>      -0.1800
   20 C20      -1.1107     4.1005    -1.1593 C.2    1 <0>       0.5300
   21 O21      -0.1548     4.2161    -1.9045 O.2    1 <0>      -0.4200
   22 N22      -1.2751     3.4061     0.0266 N.am   1 <0>      -0.4400
   23 H23      -2.5164     0.2625     0.0071 H      1 <0>       0.1900
   24 H24      -2.7677     5.7890    -2.9678 H      1 <0>       0.1600
   25 H25      -7.9042     4.7390     0.3353 H      1 <0>       0.1000
   26 H26      -7.0239     5.8583     1.4084 H      1 <0>       0.1100
   27 H27      -9.4011     6.5853     0.8001 H      1 <0>       0.1200
   28 H28      -8.1311     7.7792     0.4466 H      1 <0>       0.0700
   29 H29      -8.1840     7.0992    -3.1158 H      1 <0>       0.1200
   30 H30      -7.7954     8.3839    -1.9405 H      1 <0>       0.0800
   31 H31      -5.2787     7.0382    -3.4124 H      1 <0>       0.1600
@<TRIPOS>BOND
   1    1    2 ar
   2    2    3 ar
   3    2    4 1
   4    4   22 1
   5    4    5 2
   6    5    6 1
   7    5   23 1
   8    6    7 1
   9    7    8 1
  10    7   22 1
  11    7    9 1
  12    9   10 2
  13    9   20 1
  14   10   11 1
  15   10   24 1
  16   11   19 1
  17   11   12 2
  18   12   13 1
  19   13   18 1
  20   13   14 1
  21   14   15 1
  22   14   25 1
  23   14   26 1
  24   15   16 1
  25   15   27 1
  26   15   28 1
  27   16   17 1
  28   17   18 1
  29   17   29 1
  30   17   30 1
  31   18   19 2
  32   19   31 1
  33   20   21 2
  34   20   22 am
@<TRIPOS>MOLECULE
ZINC000013443010
43    46    1     0     0
SMALL
USER_CHARGES
@<TRIPOS>ATOM
1      O1     -5.4428    0.5565   -0.9007 O.co2    1 ZINC000013443010   -0.6300
2      C2     -4.4405    1.0159   -1.4310 C.2      1 ZINC000013443010    0.5400
3      O3     -4.2227    0.8020   -2.6158 O.co2    1 ZINC000013443010   -0.6400
4      C4     -3.4998    1.8309   -0.6451 C.2      1 ZINC000013443010    0.2900
5      C5     -2.4416    1.2658   -0.0741 C.2      1 ZINC000013443010   -0.7700
6      S6     -2.2977   -0.4794   -0.2699 S.o2     1 ZINC000013443010    2.5800
7      O7     -3.4489   -0.8986   -0.9897 O.2      1 ZINC000013443010   -0.8800
8      O8     -0.9707   -0.7252   -0.7147 O.2      1 ZINC000013443010   -0.9500
9      C9     -2.4255   -1.1965    1.3345 C.ar     1 ZINC000013443010   -0.6600
10     C10    -1.2893   -1.3895    2.0979 C.ar     1 ZINC000013443010   -0.0300
11     C11    -1.3897   -1.9521    3.3565 C.ar     1 ZINC000013443010   -0.1500
12     C12    -2.6262   -2.3213    3.8521 C.ar     1 ZINC000013443010   -0.0700
13     C13    -3.7625   -2.1274    3.0891 C.ar     1 ZINC000013443010   -0.1400
14     C14    -3.6627   -1.5609    1.8321 C.ar     1 ZINC000013443010   -0.0100
15     C15    -1.3591    1.9279    0.7126 C.3      1 ZINC000013443010   -0.5200
16     S16    -1.8747    3.5340    1.3898 S.o2     1 ZINC000013443010    2.4300
17     O17    -2.8312    3.3146    2.4175 O.2      1 ZINC000013443010   -0.9200
18     O18    -0.7170    4.3105    1.6654 O.2      1 ZINC000013443010   -0.9000
19     C19    -2.7219    4.2304   -0.0667 C.3      1 ZINC000013443010   -0.3300
20     H20    -2.0425    4.5659   -0.8503 H        1 ZINC000013443010    0.1700
21     C21    -3.8468    5.1716    0.2263 C.2      1 ZINC000013443010   -0.1300
22     C22    -4.0256    6.3619    0.8304 C.2      1 ZINC000013443010    0.0100
23     C23    -2.8757    7.0670    1.4241 C.ar     1 ZINC000013443010    0.1200
24     C24    -3.0679    8.2982    2.0543 C.ar     1 ZINC000013443010   -0.1400
25     C25    -1.9772    8.9476    2.6075 C.ar     1 ZINC000013443010   -0.0800
26     C26    -0.7307    8.3465    2.5133 C.ar     1 ZINC000013443010   -0.1700
27     C27    -0.6117    7.1233    1.8739 C.ar     1 ZINC000013443010    0.1400
28     N28    -1.6639    6.5235    1.3605 N.ar     1 ZINC000013443010   -0.4700
29     C29    -4.6630    4.1626   -0.4682 C.2      1 ZINC000013443010    0.5800
30     O30    -5.8043    4.1877   -0.8896 O.2      1 ZINC000013443010   -0.4500
31     N31    -3.7118    3.2066   -0.4997 N.am     1 ZINC000013443010   -0.5600
32     H32    -0.3233   -1.1011    1.7107 H        1 ZINC000013443010    0.1400
33     H33    -0.5019   -2.1036    3.9526 H        1 ZINC000013443010    0.1300
34     H34    -2.7045   -2.7615    4.8352 H        1 ZINC000013443010    0.1300
35     H35    -4.7286   -2.4162    3.4761 H        1 ZINC000013443010    0.1300
36     H36    -4.5504   -1.4094    1.2360 H        1 ZINC000013443010    0.1500
37     H37    -1.0710    1.2741    1.5358 H        1 ZINC000013443010    0.1400
38     H38    -0.4949    2.0789    0.0657 H        1 ZINC000013443010    0.1500
39     H39    -5.0116    6.7997    0.8798 H        1 ZINC000013443010    0.1700
40     H40    -4.0529    8.7377    2.1091 H        1 ZINC000013443010    0.1400
41     H41    -2.0944    9.9010    3.1010 H        1 ZINC000013443010    0.1400
42     H42     0.1394    8.8280    2.9345 H        1 ZINC000013443010    0.1400
43     H43     0.3579    6.6536    1.7995 H        1 ZINC000013443010    0.1700
@<TRIPOS>BOND
1     1     2     ar
2     2     3     ar
3     2     4     1
4     4     31    1
5     4     5     2
6     5     6     1
7     5     15    1
8     6     7     2
9     6     8     2
10    6     9     1
11    9     14    ar
12    9     10    ar
13    10    11    ar
14    10    32    1
15    11    12    ar
16    11    33    1
17    12    13    ar
18    12    34    1
19    13    14    ar
20    13    35    1
21    14    36    1
22    15    16    1
23    15    37    1
24    15    38    1
25    16    17    2
26    16    18    2
27    16    19    1
28    19    20    1
29    19    31    1
30    19    21    1
31    21    22    2
32    21    29    1
33    22    23    1
34    22    39    1
35    23    28    ar
36    23    24    ar
37    24    25    ar
38    24    40    1
39    25    26    ar
40    25    41    1
41    26    27    ar
42    26    42    1
43    27    28    ar
44    27    43    1
45    29    30    2
46    29    31    am
@<TRIPOS>SUBSTRUCTURE
1   ZINC000013443010 1     RESIDUE    1   A     ZIN   1
