
  Mrv0541 04051115152D          

 20 21  0  0  0  0            999 V2000
   -2.7668    0.5297    0.0000 B   0  0  0  0  0  0  0  0  0  0  0  0
   -3.4813    0.1172    0.0000 O   0  0  0  0  0  0  0  0  0  0  0  0
   -2.7668    1.3547    0.0000 O   0  0  0  0  0  0  0  0  0  0  0  0
   -2.0523    0.1172    0.0000 C   0  0  0  0  0  0  0  0  0  0  0  0
   -1.3378    0.5297    0.0000 N   0  0  0  0  0  0  0  0  0  0  0  0
   -0.6234    0.1172    0.0000 C   0  0  0  0  0  0  0  0  0  0  0  0
   -0.6234   -0.7078    0.0000 O   0  0  0  0  0  0  0  0  0  0  0  0
    0.0911    0.5297    0.0000 C   0  0  0  0  0  0  0  0  0  0  0  0
    1.3968    0.8072    0.0000 N   0  0  0  0  0  0  0  0  0  0  0  0
    0.9843    1.5217    0.0000 O   0  0  0  0  0  0  0  0  0  0  0  0
    0.1773    1.3502    0.0000 C   0  0  0  0  0  0  0  0  0  0  0  0
    0.8448    0.1941    0.0000 C   0  0  0  0  0  0  0  0  0  0  0  0
   -0.4358    1.9022    0.0000 C   0  0  0  0  0  0  0  0  0  0  0  0
    1.0163   -0.6129    0.0000 C   0  0  0  0  0  0  0  0  0  0  0  0
    1.8009   -0.8678    0.0000 C   0  0  0  0  0  0  0  0  0  0  0  0
    2.4140   -0.3158    0.0000 Cl  0  0  0  0  0  0  0  0  0  0  0  0
    1.9725   -1.6748    0.0000 C   0  0  0  0  0  0  0  0  0  0  0  0
    1.3594   -2.2268    0.0000 C   0  0  0  0  0  0  0  0  0  0  0  0
    0.5747   -1.9719    0.0000 C   0  0  0  0  0  0  0  0  0  0  0  0
    0.4032   -1.1649    0.0000 C   0  0  0  0  0  0  0  0  0  0  0  0
  1  2  1  0  0  0  0
  1  3  1  0  0  0  0
  1  4  1  0  0  0  0
  4  5  1  0  0  0  0
  6  5  1  0  0  0  0
  6  7  2  0  0  0  0
  6  8  1  0  0  0  0
  8 11  2  0  0  0  0
 12  8  1  0  0  0  0
  9 10  1  0  0  0  0
 12  9  2  0  0  0  0
 11 10  1  0  0  0  0
 11 13  1  0  0  0  0
 12 14  1  0  0  0  0
 14 15  2  0  0  0  0
 14 20  1  0  0  0  0
 15 16  1  0  0  0  0
 15 17  1  0  0  0  0
 17 18  2  0  0  0  0
 18 19  1  0  0  0  0
 19 20  2  0  0  0  0
M  END
> <chembl_id>
CHEMBL324688

$$$$

          11280715292D 1   1.00000     0.00000     0

 12 13  0     0  0            999 V2000
    1.1125   -4.8292    0.0000 B   0  0  0  0  0  0           0  0  0
    2.1542   -4.8375    0.0000 C   0  0  0  0  0  0           0  0  0
    3.7250   -5.7417    0.0000 C   0  0  0  0  0  0           0  0  0
    5.2625   -5.0542    0.0000 N   0  0  0  0  0  0           0  0  0
    2.6750   -5.7417    0.0000 C   0  0  0  0  0  0           0  0  0
    4.2417   -4.8417    0.0000 C   0  0  0  0  0  0           0  0  0
    5.3750   -6.0917    0.0000 C   0  0  0  0  0  0           0  0  0
    4.4167   -6.5167    0.0000 C   0  0  0  0  0  0           0  0  0
    2.6750   -3.9375    0.0000 C   0  0  0  0  0  0           0  0  0
    3.7167   -3.9417    0.0000 C   0  0  0  0  0  0           0  0  0
    0.5792   -5.7292    0.0000 O   0  0  0  0  0  0           0  0  0
    0.5917   -3.9250    0.0000 O   0  0  0  0  0  0           0  0  0
  2  1  1  0     0  0
  3  5  1  0     0  0
  4  6  1  0     0  0
  5  2  2  0     0  0
  6 10  1  0     0  0
  7  8  2  0     0  0
  8  3  1  0     0  0
  9  2  1  0     0  0
 10  9  2  0     0  0
 11  1  1  0     0  0
 12  1  1  0     0  0
  3  6  2  0     0  0
  4  7  1  0     0  0
M  END
> <chembl_id>
CHEMBL342460

$$$$

          11280715292D 1   1.00000     0.00000     0

 12 13  0     0  0            999 V2000
    1.1125   -4.8292    0.0000 B   0  0  0  0  0  0           0  0  0
    2.6750   -5.7417    0.0000 C   0  0  0  0  0  0           0  0  0
    2.1542   -4.8375    0.0000 C   0  0  0  0  0  0           0  0  0
    3.7250   -5.7417    0.0000 C   0  0  0  0  0  0           0  0  0
    4.2417   -4.8417    0.0000 C   0  0  0  0  0  0           0  0  0
    4.4167   -6.5167    0.0000 O   0  0  0  0  0  0           0  0  0
    5.2625   -5.0542    0.0000 O   0  0  0  0  0  0           0  0  0
    5.3750   -6.0917    0.0000 C   0  0  0  0  0  0           0  0  0
    2.6750   -3.9375    0.0000 C   0  0  0  0  0  0           0  0  0
    3.7167   -3.9417    0.0000 C   0  0  0  0  0  0           0  0  0
    0.5792   -5.7292    0.0000 O   0  0  0  0  0  0           0  0  0
    0.5917   -3.9250    0.0000 O   0  0  0  0  0  0           0  0  0
  2  3  2  0     0  0
  3  1  1  0     0  0
  4  2  1  0     0  0
  5 10  1  0     0  0
  6  4  1  0     0  0
  7  5  1  0     0  0
  8  6  1  0     0  0
  9  3  1  0     0  0
 10  9  2  0     0  0
 11  1  1  0     0  0
 12  1  1  0     0  0
  4  5  2  0     0  0
  7  8  1  0     0  0
M  END
> <chembl_id>
CHEMBL141313

$$$$

          11280715302D 1   1.00000     0.00000     0

 17 19  0     0  0            999 V2000
    2.1542   -4.8375    0.0000 C   0  0  0  0  0  0           0  0  0
    2.6750   -3.9375    0.0000 C   0  0  0  0  0  0           0  0  0
    3.7167   -3.9417    0.0000 C   0  0  0  0  0  0           0  0  0
    2.6750   -5.7417    0.0000 C   0  0  0  0  0  0           0  0  0
    1.1125   -4.8292    0.0000 B   0  0  0  0  0  0           0  0  0
    4.2417   -4.8375    0.0000 C   0  0  0  0  0  0           0  0  0
    3.7250   -5.7417    0.0000 C   0  0  0  0  0  0           0  0  0
    0.5917   -3.9250    0.0000 O   0  0  0  0  0  0           0  0  0
    0.5792   -5.7292    0.0000 O   0  0  0  0  0  0           0  0  0
    2.1542   -3.0292    0.0000 C   0  0  0  0  0  0           0  0  0
    4.2417   -3.0500    0.0000 C   0  0  0  0  0  0           0  0  0
    5.2792   -4.8292    0.0000 C   0  0  0  0  0  0           0  0  0
    4.2417   -6.6375    0.0000 C   0  0  0  0  0  0           0  0  0
    2.6875   -2.1375    0.0000 C   0  0  0  0  0  0           0  0  0
    3.7292   -2.1417    0.0000 C   0  0  0  0  0  0           0  0  0
    5.8042   -5.7292    0.0000 C   0  0  0  0  0  0           0  0  0
    5.2875   -6.6292    0.0000 C   0  0  0  0  0  0           0  0  0
  2  1  1  0     0  0
  3  2  1  0     0  0
  4  1  2  0     0  0
  5  1  1  0     0  0
  6  7  1  0     0  0
  7  4  1  0     0  0
  8  5  1  0     0  0
  9  5  1  0     0  0
 10  2  2  0     0  0
 11  3  2  0     0  0
 12  6  2  0     0  0
 13  7  2  0     0  0
 14 10  1  0     0  0
 15 14  2  0     0  0
 16 17  2  0     0  0
 17 13  1  0     0  0
  6  3  1  0     0  0
 15 11  1  0     0  0
 12 16  1  0     0  0
M  END
> <chembl_id>
CHEMBL140467

$$$$

          11280715302D 1   1.00000     0.00000     0

  8  8  0     1  0            999 V2000
    0.3292   -0.4167    0.0000 B   0  0  0  0  0  0           0  0  0
    1.3750   -0.4292    0.0000 C   0  0  1  0  0  0           0  0  0
    2.9792    0.0833    0.0000 O   0  0  0  0  0  0           0  0  0
    1.9792   -1.2750    0.0000 C   0  0  0  0  0  0           0  0  0
   -0.1958   -1.3250    0.0000 O   0  0  0  0  0  0           0  0  0
   -0.1833    0.4833    0.0000 O   0  0  0  0  0  0           0  0  0
    1.9917    0.4125    0.0000 C   0  0  0  0  0  0           0  0  0
    2.9750   -0.9625    0.0000 C   0  0  0  0  0  0           0  0  0
  2  1  1  6     0  0
  3  7  1  0     0  0
  4  2  1  0     0  0
  5  1  1  0     0  0
  6  1  1  0     0  0
  7  2  1  0     0  0
  8  4  1  0     0  0
  3  8  1  0     0  0
M  END
> <chembl_id>
CHEMBL143927

$$$$

          11280715432D 1   1.00000     0.00000     0

 19 20  0     0  0            999 V2000
   -1.5083   -1.0417    0.0000 C   0  0  0  0  0  0           0  0  0
   -1.5083   -1.8667    0.0000 B   0  0  0  0  0  0           0  0  0
   -0.7958   -0.6292    0.0000 C   0  0  0  0  0  0           0  0  0
   -0.0708    0.6208    0.0000 N   0  0  0  0  0  0           0  0  0
    0.6417    0.2000    0.0000 N   0  0  0  0  0  0           0  0  0
   -2.2208   -0.6292    0.0000 C   0  0  0  0  0  0           0  0  0
   -0.7958    0.1958    0.0000 C   0  0  0  0  0  0           0  0  0
   -2.2208    0.1958    0.0000 C   0  0  0  0  0  0           0  0  0
    1.3542    0.6208    0.0000 C   0  0  0  0  0  0           0  0  0
   -0.7958   -2.2792    0.0000 O   0  0  0  0  0  0           0  0  0
   -2.2208   -2.2792    0.0000 O   0  0  0  0  0  0           0  0  0
    2.7792    1.4458    0.0000 C   0  0  0  0  0  0           0  0  0
   -1.5083    0.6000    0.0000 C   0  0  0  0  0  0           0  0  0
   -2.9333   -1.0417    0.0000 O   0  0  0  0  0  0           0  0  0
    3.4917    1.8708    0.0000 Br  0  0  0  0  0  0           0  0  0
    1.3417    1.4458    0.0000 C   0  0  0  0  0  0           0  0  0
    2.0667    0.2000    0.0000 C   0  0  0  0  0  0           0  0  0
    2.0542    1.8583    0.0000 C   0  0  0  0  0  0           0  0  0
    2.7792    0.6208    0.0000 C   0  0  0  0  0  0           0  0  0
  2  1  1  0     0  0
  3  1  2  0     0  0
  4  7  1  0     0  0
  5  4  2  0     0  0
  6  1  1  0     0  0
  7  3  1  0     0  0
  8  6  2  0     0  0
  9  5  1  0     0  0
 10  2  1  0     0  0
 11  2  1  0     0  0
 12 19  2  0     0  0
 13  8  1  0     0  0
 14  6  1  0     0  0
 15 12  1  0     0  0
 16  9  1  0     0  0
 17  9  2  0     0  0
 18 16  2  0     0  0
 19 17  1  0     0  0
  7 13  2  0     0  0
 18 12  1  0     0  0
M  END
> <chembl_id>
CHEMBL368033

$$$$

          11280715442D 1   1.00000     0.00000     0

 21 22  0     0  0            999 V2000
    1.7542    2.2208    0.0000 N   0  3  0  0  0  0           0  0  0
    1.7542    1.3833    0.0000 C   0  0  0  0  0  0           0  0  0
    1.0500    0.9708    0.0000 C   0  0  0  0  0  0           0  0  0
    0.3417   -0.2667    0.0000 N   0  0  0  0  0  0           0  0  0
   -1.8000   -2.3417    0.0000 B   0  0  0  0  0  0           0  0  0
    1.0542    0.1583    0.0000 C   0  0  0  0  0  0           0  0  0
   -0.3708    0.1458    0.0000 N   0  0  0  0  0  0           0  0  0
   -1.8000   -1.5167    0.0000 C   0  0  0  0  0  0           0  0  0
    2.4667    2.6333    0.0000 O   0  5  0  0  0  0           0  0  0
   -1.0833   -1.1042    0.0000 C   0  0  0  0  0  0           0  0  0
    1.0375    2.6208    0.0000 O   0  0  0  0  0  0           0  0  0
   -1.0833   -0.2792    0.0000 C   0  0  0  0  0  0           0  0  0
    0.3292    1.3708    0.0000 O   0  0  0  0  0  0           0  0  0
   -2.5208   -2.7542    0.0000 O   0  0  0  0  0  0           0  0  0
   -1.0833   -2.7542    0.0000 O   0  0  0  0  0  0           0  0  0
    2.4792    0.9708    0.0000 C   0  0  0  0  0  0           0  0  0
    1.7667   -0.2667    0.0000 C   0  0  0  0  0  0           0  0  0
   -2.5208   -1.1042    0.0000 C   0  0  0  0  0  0           0  0  0
    2.4792    0.1583    0.0000 C   0  0  0  0  0  0           0  0  0
   -2.5208   -0.2792    0.0000 C   0  0  0  0  0  0           0  0  0
   -1.8000    0.1333    0.0000 C   0  0  0  0  0  0           0  0  0
  2  1  1  0     0  0
  3  2  2  0     0  0
  4  6  1  0     0  0
  5  8  1  0     0  0
  6  3  1  0     0  0
  7  4  2  0     0  0
  8 10  2  0     0  0
  9  1  1  0     0  0
 10 12  1  0     0  0
 11  1  2  0     0  0
 12  7  1  0     0  0
 13  3  1  0     0  0
 14  5  1  0     0  0
 15  5  1  0     0  0
 16  2  1  0     0  0
 17 19  1  0     0  0
 18 20  2  0     0  0
 19 16  2  0     0  0
 20 21  1  0     0  0
 21 12  2  0     0  0
  6 17  2  0     0  0
  8 18  1  0     0  0
M  CHG  2   1   1   9  -1
M  END
> <chembl_id>
CHEMBL182644

$$$$

          11280715442D 1   1.00000     0.00000     0

 20 21  0     0  0            999 V2000
    2.3542    1.2500    0.0000 C   0  0  0  0  0  0           0  0  0
    1.6292    1.6625    0.0000 C   0  0  0  0  0  0           0  0  0
    2.3542    0.4250    0.0000 C   0  0  0  0  0  0           0  0  0
   -1.9333   -2.0667    0.0000 B   0  0  0  0  0  0           0  0  0
    0.2167    0.0000    0.0000 N   0  0  0  0  0  0           0  0  0
   -0.5000    0.4125    0.0000 N   0  0  0  0  0  0           0  0  0
   -1.9333   -1.2417    0.0000 C   0  0  0  0  0  0           0  0  0
    0.9167    1.2458    0.0000 C   0  0  0  0  0  0           0  0  0
    1.6417    0.0125    0.0000 C   0  0  0  0  0  0           0  0  0
    0.9292    0.4250    0.0000 C   0  0  0  0  0  0           0  0  0
   -1.2083   -0.8292    0.0000 C   0  0  0  0  0  0           0  0  0
   -1.2083    0.0000    0.0000 C   0  0  0  0  0  0           0  0  0
    3.0667    0.0125    0.0000 Cl  0  0  0  0  0  0           0  0  0
    1.6250    2.4875    0.0000 Cl  0  0  0  0  0  0           0  0  0
    3.0667    1.6625    0.0000 O   0  0  0  0  0  0           0  0  0
   -2.6458   -2.4792    0.0000 O   0  0  0  0  0  0           0  0  0
   -1.2083   -2.4792    0.0000 O   0  0  0  0  0  0           0  0  0
   -2.6458   -0.8292    0.0000 C   0  0  0  0  0  0           0  0  0
   -2.6458   -0.0042    0.0000 C   0  0  0  0  0  0           0  0  0
   -1.9333    0.4125    0.0000 C   0  0  0  0  0  0           0  0  0
  2  1  1  0     0  0
  3  1  2  0     0  0
  4  7  1  0     0  0
  5 10  1  0     0  0
  6  5  2  0     0  0
  7 11  2  0     0  0
  8  2  2  0     0  0
  9  3  1  0     0  0
 10  9  2  0     0  0
 11 12  1  0     0  0
 12  6  1  0     0  0
 13  3  1  0     0  0
 14  2  1  0     0  0
 15  1  1  0     0  0
 16  4  1  0     0  0
 17  4  1  0     0  0
 18 19  2  0     0  0
 19 20  1  0     0  0
 20 12  2  0     0  0
  8 10  1  0     0  0
  7 18  1  0     0  0
M  END
> <chembl_id>
CHEMBL181590

$$$$

          11280715432D 1   1.00000     0.00000     0

 32 35  0     0  0            999 V2000
    2.4000    1.1000    0.0000 C   0  0  0  0  0  0           0  0  0
    1.6875    0.6833    0.0000 N   0  0  0  0  0  0           0  0  0
    3.1167    0.6958    0.0000 C   0  0  0  0  0  0           0  0  0
    2.3917    1.9208    0.0000 C   0  0  0  0  0  0           0  0  0
   -1.8708   -0.5792    0.0000 N   0  0  0  0  0  0           0  0  0
    3.1000    2.3458    0.0000 C   0  0  0  0  0  0           0  0  0
    3.8250    1.9375    0.0000 C   0  0  0  0  0  0           0  0  0
    3.8250    1.1125    0.0000 C   0  0  0  0  0  0           0  0  0
   -3.9958   -2.6500    0.0000 B   0  0  0  0  0  0           0  0  0
   -1.1625   -0.1542    0.0000 C   0  0  0  0  0  0           0  0  0
    0.9750    1.0958    0.0000 N   0  0  0  0  0  0           0  0  0
   -2.5958   -0.1667    0.0000 N   0  0  0  0  0  0           0  0  0
   -4.0208   -1.8250    0.0000 C   0  0  0  0  0  0           0  0  0
   -0.4458   -0.5667    0.0000 C   0  0  0  0  0  0           0  0  0
    0.2625   -0.1500    0.0000 C   0  0  0  0  0  0           0  0  0
   -3.3000   -1.4167    0.0000 C   0  0  0  0  0  0           0  0  0
    0.2625    0.6750    0.0000 C   0  0  0  0  0  0           0  0  0
   -3.3083   -0.5875    0.0000 C   0  0  0  0  0  0           0  0  0
   -1.1708    0.6625    0.0000 C   0  0  0  0  0  0           0  0  0
   -4.7083   -3.0792    0.0000 O   0  0  0  0  0  0           0  0  0
   -3.2708   -3.0542    0.0000 O   0  0  0  0  0  0           0  0  0
    1.6750    2.3375    0.0000 O   0  0  0  0  0  0           0  0  0
    4.5292    2.3625    0.0000 O   0  0  0  0  0  0           0  0  0
   -0.4375   -1.3875    0.0000 O   0  0  0  0  0  0           0  0  0
   -0.4625    1.0833    0.0000 C   0  0  0  0  0  0           0  0  0
    3.1250   -0.1375    0.0000 C   0  0  0  0  0  0           0  0  0
   -4.7375   -1.4250    0.0000 C   0  0  0  0  0  0           0  0  0
    4.5417    0.7125    0.0000 C   0  0  0  0  0  0           0  0  0
   -4.7458   -0.6000    0.0000 C   0  0  0  0  0  0           0  0  0
   -4.0333   -0.1792    0.0000 C   0  0  0  0  0  0           0  0  0
    3.8417   -0.5375    0.0000 C   0  0  0  0  0  0           0  0  0
    4.5542   -0.1167    0.0000 C   0  0  0  0  0  0           0  0  0
  2  1  1  0     0  0
  3  1  2  0     0  0
  4  1  1  0     0  0
  5 10  1  0     0  0
  6  4  2  0     0  0
  7  6  1  0     0  0
  8  3  1  0     0  0
  9 13  1  0     0  0
 10 19  1  0     0  0
 11  2  2  0     0  0
 12  5  2  0     0  0
 13 16  2  0     0  0
 14 15  1  0     0  0
 15 17  2  0     0  0
 16 18  1  0     0  0
 17 11  1  0     0  0
 18 12  1  0     0  0
 19 25  2  0     0  0
 20  9  1  0     0  0
 21  9  1  0     0  0
 22  4  1  0     0  0
 23  7  1  0     0  0
 24 14  1  0     0  0
 25 17  1  0     0  0
 26  3  1  0     0  0
 27 29  2  0     0  0
 28  8  1  0     0  0
 29 30  1  0     0  0
 30 18  2  0     0  0
 31 26  2  0     0  0
 32 31  1  0     0  0
  8  7  2  0     0  0
 28 32  2  0     0  0
 14 10  2  0     0  0
 13 27  1  0     0  0
M  END
> <chembl_id>
CHEMBL182522

$$$$

          11280715442D 1   1.00000     0.00000     0

 18 19  0     0  0            999 V2000
    0.9542    1.3458    0.0000 C   0  0  0  0  0  0           0  0  0
    1.8500    2.3333    0.0000 N   0  0  0  0  0  0           0  0  0
    0.2417    0.9333    0.0000 N   0  0  0  0  0  0           0  0  0
    1.7042    1.0083    0.0000 C   0  0  0  0  0  0           0  0  0
    1.0417    2.1583    0.0000 C   0  0  0  0  0  0           0  0  0
    2.2542    1.6208    0.0000 O   0  0  0  0  0  0           0  0  0
   -1.1833   -2.3792    0.0000 B   0  0  0  0  0  0           0  0  0
    0.2500    0.1083    0.0000 N   0  0  0  0  0  0           0  0  0
   -1.1833   -1.5542    0.0000 C   0  0  0  0  0  0           0  0  0
   -0.4750   -1.1417    0.0000 C   0  0  0  0  0  0           0  0  0
   -0.4750   -0.3167    0.0000 C   0  0  0  0  0  0           0  0  0
   -1.9083   -2.7917    0.0000 O   0  0  0  0  0  0           0  0  0
   -0.4750   -2.7917    0.0000 O   0  0  0  0  0  0           0  0  0
    1.8792    0.2000    0.0000 C   0  0  0  0  0  0           0  0  0
    0.4375    2.7083    0.0000 C   0  0  0  0  0  0           0  0  0
   -1.9083   -1.1417    0.0000 C   0  0  0  0  0  0           0  0  0
   -1.9083   -0.3167    0.0000 C   0  0  0  0  0  0           0  0  0
   -1.1833    0.0958    0.0000 C   0  0  0  0  0  0           0  0  0
  2  5  2  0     0  0
  3  1  1  0     0  0
  4  1  2  0     0  0
  5  1  1  0     0  0
  6  4  1  0     0  0
  7  9  1  0     0  0
  8  3  2  0     0  0
  9 10  2  0     0  0
 10 11  1  0     0  0
 11  8  1  0     0  0
 12  7  1  0     0  0
 13  7  1  0     0  0
 14  4  1  0     0  0
 15  5  1  0     0  0
 16 17  2  0     0  0
 17 18  1  0     0  0
 18 11  2  0     0  0
  2  6  1  0     0  0
  9 16  1  0     0  0
M  END
> <chembl_id>
CHEMBL366099

$$$$

          11280715442D 1   1.00000     0.00000     0

 21 22  0     0  0            999 V2000
   -0.2375    0.4625    0.0000 N   0  0  0  0  0  0           0  0  0
    2.6250    2.1208    0.0000 B   0  0  0  0  0  0           0  0  0
   -1.6750   -2.8542    0.0000 B   0  0  0  0  0  0           0  0  0
    1.1875    2.1083    0.0000 C   0  0  0  0  0  0           0  0  0
    1.9000    1.7000    0.0000 C   0  0  0  0  0  0           0  0  0
    0.4792    0.8708    0.0000 C   0  0  0  0  0  0           0  0  0
    0.4792    1.7000    0.0000 C   0  0  0  0  0  0           0  0  0
   -0.2375   -0.3750    0.0000 N   0  0  0  0  0  0           0  0  0
   -1.6750   -2.0375    0.0000 C   0  0  0  0  0  0           0  0  0
   -0.9583   -1.6167    0.0000 C   0  0  0  0  0  0           0  0  0
    1.1875    0.4625    0.0000 C   0  0  0  0  0  0           0  0  0
    1.9000    0.8708    0.0000 C   0  0  0  0  0  0           0  0  0
   -0.9583   -0.7917    0.0000 C   0  0  0  0  0  0           0  0  0
   -0.2500    2.1208    0.0000 N   0  0  0  0  0  0           0  0  0
   -2.3875   -3.2750    0.0000 O   0  0  0  0  0  0           0  0  0
   -0.9583   -3.2750    0.0000 O   0  0  0  0  0  0           0  0  0
    2.6167    2.9458    0.0000 O   0  0  0  0  0  0           0  0  0
    3.3417    1.7083    0.0000 O   0  0  0  0  0  0           0  0  0
   -2.3875   -1.6167    0.0000 C   0  0  0  0  0  0           0  0  0
   -2.3875   -0.8000    0.0000 C   0  0  0  0  0  0           0  0  0
   -1.6750   -0.3792    0.0000 C   0  0  0  0  0  0           0  0  0
  2  5  1  0     0  0
  3  9  1  0     0  0
  4  7  2  0     0  0
  5 12  2  0     0  0
  6  1  1  0     0  0
  7  6  1  0     0  0
  8  1  2  0     0  0
  9 10  2  0     0  0
 10 13  1  0     0  0
 11  6  2  0     0  0
 12 11  1  0     0  0
 13  8  1  0     0  0
 14  7  1  0     0  0
 15  3  1  0     0  0
 16  3  1  0     0  0
 17  2  1  0     0  0
 18  2  1  0     0  0
 19 20  2  0     0  0
 20 21  1  0     0  0
 21 13  2  0     0  0
  4  5  1  0     0  0
  9 19  1  0     0  0
M  END
> <chembl_id>
CHEMBL184830

$$$$

          11280715442D 1   1.00000     0.00000     0

 29 31  0     0  0            999 V2000
    1.1625    1.3833    0.0000 S   0  0  3  0  0  0           0  0  0
    1.1625    2.2083    0.0000 C   0  0  0  0  0  0           0  0  0
    0.0792    4.0417    0.0000 S   0  0  3  0  0  0           0  0  0
    0.6250    3.4208    0.0000 C   0  0  0  0  0  0           0  0  0
    0.4500    2.6083    0.0000 C   0  0  0  0  0  0           0  0  0
    1.4417    3.5000    0.0000 S   0  0  0  0  0  0           0  0  0
    1.7792    2.7708    0.0000 C   0  0  0  0  0  0           0  0  0
    1.1625    0.5500    0.0000 C   0  0  0  0  0  0           0  0  0
   -1.6958   -4.4167    0.0000 B   0  0  0  0  0  0           0  0  0
   -0.2583   -1.9292    0.0000 N   0  0  0  0  0  0           0  0  0
   -0.2625   -1.1000    0.0000 N   0  0  0  0  0  0           0  0  0
   -1.6958   -3.5917    0.0000 C   0  0  0  0  0  0           0  0  0
    0.4500    0.1458    0.0000 C   0  0  0  0  0  0           0  0  0
    0.3375    1.3833    0.0000 O   0  0  0  0  0  0           0  0  0
    1.9875    1.3833    0.0000 O   0  0  0  0  0  0           0  0  0
   -0.5458    3.5083    0.0000 O   0  0  0  0  0  0           0  0  0
    0.7000    4.5792    0.0000 O   0  0  0  0  0  0           0  0  0
   -0.9833   -3.1792    0.0000 C   0  0  0  0  0  0           0  0  0
   -0.4625    4.6542    0.0000 O   0  0  0  0  0  0           0  0  0
    0.4500   -0.6875    0.0000 C   0  0  0  0  0  0           0  0  0
   -0.9833   -2.3500    0.0000 C   0  0  0  0  0  0           0  0  0
   -0.9833   -4.8292    0.0000 O   0  0  0  0  0  0           0  0  0
   -2.4083   -4.8292    0.0000 O   0  0  0  0  0  0           0  0  0
    1.8792    0.1458    0.0000 C   0  0  0  0  0  0           0  0  0
   -2.4083   -3.1792    0.0000 C   0  0  0  0  0  0           0  0  0
    1.8792   -0.6875    0.0000 C   0  0  0  0  0  0           0  0  0
   -2.4083   -2.3542    0.0000 C   0  0  0  0  0  0           0  0  0
    1.1667   -1.1000    0.0000 C   0  0  0  0  0  0           0  0  0
   -1.6958   -1.9375    0.0000 C   0  0  0  0  0  0           0  0  0
  2  1  1  0     0  0
  3  4  1  0     0  0
  4  5  2  0     0  0
  5  2  1  0     0  0
  6  7  1  0     0  0
  7  2  2  0     0  0
  8  1  1  0     0  0
  9 12  1  0     0  0
 10 11  2  0     0  0
 11 20  1  0     0  0
 12 18  2  0     0  0
 13  8  2  0     0  0
 14  1  2  0     0  0
 15  1  2  0     0  0
 16  3  2  0     0  0
 17  3  2  0     0  0
 18 21  1  0     0  0
 19  3  1  0     0  0
 20 13  1  0     0  0
 21 10  1  0     0  0
 22  9  1  0     0  0
 23  9  1  0     0  0
 24  8  1  0     0  0
 25 27  2  0     0  0
 26 24  2  0     0  0
 27 29  1  0     0  0
 28 26  1  0     0  0
 29 21  2  0     0  0
  4  6  1  0     0  0
 20 28  2  0     0  0
 12 25  1  0     0  0
M  END
> <chembl_id>
CHEMBL184890

$$$$

          11280715442D 1   1.00000     0.00000     0

 26 28  0     0  0            999 V2000
    1.1000    2.1458    0.0000 S   0  0  3  0  0  0           0  0  0
    1.1000    1.3125    0.0000 C   0  0  0  0  0  0           0  0  0
    0.3792    0.0750    0.0000 C   0  0  0  0  0  0           0  0  0
    0.3792    0.9000    0.0000 C   0  0  0  0  0  0           0  0  0
    1.8125    0.9000    0.0000 C   0  0  0  0  0  0           0  0  0
    1.1042   -0.3375    0.0000 C   0  0  0  0  0  0           0  0  0
    1.8125    0.0750    0.0000 C   0  0  0  0  0  0           0  0  0
   -0.3375   -0.3500    0.0000 N   0  0  0  0  0  0           0  0  0
   -2.4583   -2.4167    0.0000 B   0  0  0  0  0  0           0  0  0
   -1.0583    0.0625    0.0000 N   0  0  0  0  0  0           0  0  0
   -2.4750   -1.6000    0.0000 C   0  0  0  0  0  0           0  0  0
    0.2750    2.1458    0.0000 O   0  0  0  0  0  0           0  0  0
    1.9250    2.1458    0.0000 O   0  0  0  0  0  0           0  0  0
   -1.7625   -1.1792    0.0000 C   0  0  0  0  0  0           0  0  0
    1.1000    2.9625    0.0000 O   0  0  0  0  0  0           0  0  0
   -1.7708   -0.3500    0.0000 C   0  0  0  0  0  0           0  0  0
    1.1000   -1.1625    0.0000 O   0  0  0  0  0  0           0  0  0
   -3.1625   -2.8417    0.0000 O   0  0  0  0  0  0           0  0  0
   -1.7333   -2.8250    0.0000 O   0  0  0  0  0  0           0  0  0
    2.5250    1.3125    0.0000 C   0  0  0  0  0  0           0  0  0
    2.5250   -0.3375    0.0000 C   0  0  0  0  0  0           0  0  0
   -3.2083   -1.1875    0.0000 C   0  0  0  0  0  0           0  0  0
   -3.2083   -0.3667    0.0000 C   0  0  0  0  0  0           0  0  0
   -2.4958    0.0583    0.0000 C   0  0  0  0  0  0           0  0  0
    3.2417    0.9000    0.0000 C   0  0  0  0  0  0           0  0  0
    3.2417    0.0750    0.0000 C   0  0  0  0  0  0           0  0  0
  2  1  1  0     0  0
  3  4  1  0     0  0
  4  2  2  0     0  0
  5  2  1  0     0  0
  6  7  1  0     0  0
  7  5  1  0     0  0
  8  3  1  0     0  0
  9 11  1  0     0  0
 10  8  2  0     0  0
 11 14  2  0     0  0
 12  1  2  0     0  0
 13  1  2  0     0  0
 14 16  1  0     0  0
 15  1  1  0     0  0
 16 10  1  0     0  0
 17  6  1  0     0  0
 18  9  1  0     0  0
 19  9  1  0     0  0
 20  5  2  0     0  0
 21  7  2  0     0  0
 22 23  2  0     0  0
 23 24  1  0     0  0
 24 16  2  0     0  0
 25 20  1  0     0  0
 26 25  2  0     0  0
  3  6  2  0     0  0
 21 26  1  0     0  0
 11 22  1  0     0  0
M  END
> <chembl_id>
CHEMBL359901

$$$$

          11280715442D 1   1.00000     0.00000     0

 22 24  0     0  0            999 V2000
    0.8125    0.6625    0.0000 C   0  0  0  0  0  0           0  0  0
    0.1000    0.2458    0.0000 N   0  0  0  0  0  0           0  0  0
   -2.0208   -1.8292    0.0000 B   0  0  0  0  0  0           0  0  0
    1.5167    0.2583    0.0000 C   0  0  0  0  0  0           0  0  0
   -0.6208    0.6583    0.0000 N   0  0  0  0  0  0           0  0  0
   -2.0458   -1.0042    0.0000 C   0  0  0  0  0  0           0  0  0
   -1.3375   -0.5917    0.0000 C   0  0  0  0  0  0           0  0  0
    0.8000    1.4833    0.0000 C   0  0  0  0  0  0           0  0  0
    2.2375    0.6708    0.0000 C   0  0  0  0  0  0           0  0  0
   -1.3375    0.2375    0.0000 C   0  0  0  0  0  0           0  0  0
    1.5125    1.9083    0.0000 C   0  0  0  0  0  0           0  0  0
    2.2250    1.4958    0.0000 C   0  0  0  0  0  0           0  0  0
   -1.3000   -2.2292    0.0000 O   0  0  0  0  0  0           0  0  0
   -2.7250   -2.2542    0.0000 O   0  0  0  0  0  0           0  0  0
    0.0792    1.8958    0.0000 O   0  0  0  0  0  0           0  0  0
   -2.7750   -0.6000    0.0000 C   0  0  0  0  0  0           0  0  0
    1.5250   -0.5667    0.0000 C   0  0  0  0  0  0           0  0  0
   -2.7750    0.2250    0.0000 C   0  0  0  0  0  0           0  0  0
   -2.0625    0.6458    0.0000 C   0  0  0  0  0  0           0  0  0
    2.9417    0.2708    0.0000 C   0  0  0  0  0  0           0  0  0
    2.2375   -0.9750    0.0000 C   0  0  0  0  0  0           0  0  0
    2.9542   -0.5542    0.0000 C   0  0  0  0  0  0           0  0  0
  2  1  1  0     0  0
  3  6  1  0     0  0
  4  1  2  0     0  0
  5  2  2  0     0  0
  6  7  2  0     0  0
  7 10  1  0     0  0
  8  1  1  0     0  0
  9  4  1  0     0  0
 10  5  1  0     0  0
 11  8  2  0     0  0
 12 11  1  0     0  0
 13  3  1  0     0  0
 14  3  1  0     0  0
 15  8  1  0     0  0
 16 18  2  0     0  0
 17  4  1  0     0  0
 18 19  1  0     0  0
 19 10  2  0     0  0
 20  9  1  0     0  0
 21 17  2  0     0  0
 22 21  1  0     0  0
  9 12  2  0     0  0
 20 22  2  0     0  0
  6 16  1  0     0  0
M  END
> <chembl_id>
CHEMBL184695

$$$$

          11280715442D 1   1.00000     0.00000     0

 22 24  0     0  0            999 V2000
   -0.0333    0.2458    0.0000 N   0  0  0  0  0  0           0  0  0
   -2.1583   -1.8292    0.0000 B   0  0  0  0  0  0           0  0  0
    1.3917    0.2583    0.0000 C   0  0  0  0  0  0           0  0  0
    2.1042    0.6708    0.0000 C   0  0  0  0  0  0           0  0  0
   -0.7583    0.6583    0.0000 N   0  0  0  0  0  0           0  0  0
   -2.1708   -1.0042    0.0000 C   0  0  0  0  0  0           0  0  0
    0.6792    0.6625    0.0000 C   0  0  0  0  0  0           0  0  0
   -1.4708   -0.5917    0.0000 C   0  0  0  0  0  0           0  0  0
    2.1000    1.4958    0.0000 C   0  0  0  0  0  0           0  0  0
   -1.4708    0.2375    0.0000 C   0  0  0  0  0  0           0  0  0
    0.6667    1.4833    0.0000 C   0  0  0  0  0  0           0  0  0
    1.3792    1.9083    0.0000 C   0  0  0  0  0  0           0  0  0
   -1.4333   -2.2292    0.0000 O   0  0  0  0  0  0           0  0  0
   -2.8583   -2.2542    0.0000 O   0  0  0  0  0  0           0  0  0
    2.8042    1.9208    0.0000 O   0  0  0  0  0  0           0  0  0
   -2.9000   -0.6000    0.0000 C   0  0  0  0  0  0           0  0  0
    1.4000   -0.5667    0.0000 C   0  0  0  0  0  0           0  0  0
    2.8167    0.2708    0.0000 C   0  0  0  0  0  0           0  0  0
   -2.9000    0.2208    0.0000 C   0  0  0  0  0  0           0  0  0
   -2.1958    0.6458    0.0000 C   0  0  0  0  0  0           0  0  0
    2.8167   -0.5542    0.0000 C   0  0  0  0  0  0           0  0  0
    2.1042   -0.9792    0.0000 C   0  0  0  0  0  0           0  0  0
  2  6  1  0     0  0
  3  7  2  0     0  0
  4  3  1  0     0  0
  5  1  2  0     0  0
  6  8  2  0     0  0
  7  1  1  0     0  0
  8 10  1  0     0  0
  9 12  1  0     0  0
 10  5  1  0     0  0
 11  7  1  0     0  0
 12 11  2  0     0  0
 13  2  1  0     0  0
 14  2  1  0     0  0
 15  9  1  0     0  0
 16 19  2  0     0  0
 17  3  1  0     0  0
 18  4  1  0     0  0
 19 20  1  0     0  0
 20 10  2  0     0  0
 21 22  1  0     0  0
 22 17  2  0     0  0
  4  9  2  0     0  0
 18 21  2  0     0  0
  6 16  1  0     0  0
M  END
> <chembl_id>
CHEMBL184984

$$$$

          11280715442D 1   1.00000     0.00000     0

 18 19  0     0  0            999 V2000
    0.6375    0.1458    0.0000 N   0  0  0  0  0  0           0  0  0
   -1.5125   -1.9292    0.0000 B   0  0  0  0  0  0           0  0  0
   -0.0833    0.5583    0.0000 N   0  0  0  0  0  0           0  0  0
   -1.5125   -1.1042    0.0000 C   0  0  0  0  0  0           0  0  0
    1.3542    0.5625    0.0000 C   0  0  0  0  0  0           0  0  0
   -0.7958   -0.6917    0.0000 C   0  0  0  0  0  0           0  0  0
    1.3375    1.3833    0.0000 C   0  0  0  0  0  0           0  0  0
   -0.7958    0.1375    0.0000 C   0  0  0  0  0  0           0  0  0
   -2.2208   -2.3417    0.0000 O   0  0  0  0  0  0           0  0  0
   -0.7958   -2.3417    0.0000 O   0  0  0  0  0  0           0  0  0
    0.6167    1.7833    0.0000 O   0  0  0  0  0  0           0  0  0
   -2.2208   -0.6917    0.0000 C   0  0  0  0  0  0           0  0  0
   -2.2208    0.1375    0.0000 C   0  0  0  0  0  0           0  0  0
    2.0625    0.1458    0.0000 C   0  0  0  0  0  0           0  0  0
   -1.5125    0.5458    0.0000 C   0  0  0  0  0  0           0  0  0
    2.0542    1.8083    0.0000 C   0  0  0  0  0  0           0  0  0
    2.7792    0.5625    0.0000 C   0  0  0  0  0  0           0  0  0
    2.7750    1.3833    0.0000 C   0  0  0  0  0  0           0  0  0
  2  4  1  0     0  0
  3  1  2  0     0  0
  4  6  2  0     0  0
  5  1  1  0     0  0
  6  8  1  0     0  0
  7  5  1  0     0  0
  8  3  1  0     0  0
  9  2  1  0     0  0
 10  2  1  0     0  0
 11  7  1  0     0  0
 12 13  2  0     0  0
 13 15  1  0     0  0
 14  5  2  0     0  0
 15  8  2  0     0  0
 16  7  2  0     0  0
 17 14  1  0     0  0
 18 17  2  0     0  0
 16 18  1  0     0  0
  4 12  1  0     0  0
M  END
> <chembl_id>
CHEMBL181804

$$$$

          11280715432D 1   1.00000     0.00000     0

 18 19  0     0  0            999 V2000
   -1.6708   -1.9292    0.0000 B   0  0  0  0  0  0           0  0  0
   -0.2458    0.5500    0.0000 N   0  0  0  0  0  0           0  0  0
   -1.6708   -1.1042    0.0000 C   0  0  0  0  0  0           0  0  0
    0.4792    0.1458    0.0000 N   0  0  0  0  0  0           0  0  0
   -0.9583   -0.6917    0.0000 C   0  0  0  0  0  0           0  0  0
   -0.9583    0.1333    0.0000 C   0  0  0  0  0  0           0  0  0
    1.1917    0.5583    0.0000 C   0  0  0  0  0  0           0  0  0
   -2.3833   -2.3417    0.0000 O   0  0  0  0  0  0           0  0  0
   -0.9583   -2.3417    0.0000 O   0  0  0  0  0  0           0  0  0
    2.6042    1.3833    0.0000 C   0  0  0  0  0  0           0  0  0
    1.1792    1.3833    0.0000 C   0  0  0  0  0  0           0  0  0
    1.9042    0.1458    0.0000 C   0  0  0  0  0  0           0  0  0
    1.8917    1.7958    0.0000 C   0  0  0  0  0  0           0  0  0
    2.6167    0.5583    0.0000 C   0  0  0  0  0  0           0  0  0
    3.3292    1.7958    0.0000 O   0  0  0  0  0  0           0  0  0
   -2.3833   -0.6917    0.0000 C   0  0  0  0  0  0           0  0  0
   -2.3833    0.1333    0.0000 C   0  0  0  0  0  0           0  0  0
   -1.6708    0.5458    0.0000 C   0  0  0  0  0  0           0  0  0
  2  6  1  0     0  0
  3  1  1  0     0  0
  4  2  2  0     0  0
  5  3  2  0     0  0
  6  5  1  0     0  0
  7  4  1  0     0  0
  8  1  1  0     0  0
  9  1  1  0     0  0
 10 14  2  0     0  0
 11  7  1  0     0  0
 12  7  2  0     0  0
 13 11  2  0     0  0
 14 12  1  0     0  0
 15 10  1  0     0  0
 16  3  1  0     0  0
 17 16  2  0     0  0
 18 17  1  0     0  0
  6 18  2  0     0  0
 13 10  1  0     0  0
M  END
> <chembl_id>
CHEMBL179782

$$$$

          11280715432D 1   1.00000     0.00000     0

 23 25  0     0  0            999 V2000
    0.6792    0.5833    0.0000 C   0  0  0  0  0  0           0  0  0
   -0.0333    0.1625    0.0000 N   0  0  0  0  0  0           0  0  0
    1.3917    0.1750    0.0000 C   0  0  0  0  0  0           0  0  0
    0.6750    1.4000    0.0000 C   0  0  0  0  0  0           0  0  0
    1.3792    1.8250    0.0000 C   0  0  0  0  0  0           0  0  0
    2.1000    1.4125    0.0000 C   0  0  0  0  0  0           0  0  0
    2.1042    0.5875    0.0000 C   0  0  0  0  0  0           0  0  0
   -2.1500   -1.9125    0.0000 B   0  0  0  0  0  0           0  0  0
   -0.7500    0.5750    0.0000 N   0  0  0  0  0  0           0  0  0
   -2.1708   -1.0875    0.0000 C   0  0  0  0  0  0           0  0  0
   -1.4625   -0.6750    0.0000 C   0  0  0  0  0  0           0  0  0
   -1.4625    0.1583    0.0000 C   0  0  0  0  0  0           0  0  0
   -1.4250   -2.3125    0.0000 O   0  0  0  0  0  0           0  0  0
   -2.8583   -2.3375    0.0000 O   0  0  0  0  0  0           0  0  0
   -0.0500    1.8125    0.0000 O   0  0  0  0  0  0           0  0  0
    2.8125    1.8375    0.0000 O   0  0  0  0  0  0           0  0  0
    1.4000   -0.6500    0.0000 C   0  0  0  0  0  0           0  0  0
   -2.9000   -0.6792    0.0000 C   0  0  0  0  0  0           0  0  0
    2.8167    0.1875    0.0000 C   0  0  0  0  0  0           0  0  0
   -2.9000    0.1458    0.0000 C   0  0  0  0  0  0           0  0  0
   -2.1875    0.5625    0.0000 C   0  0  0  0  0  0           0  0  0
    2.1125   -1.0542    0.0000 C   0  0  0  0  0  0           0  0  0
    2.8250   -0.6375    0.0000 C   0  0  0  0  0  0           0  0  0
  2  1  1  0     0  0
  3  1  2  0     0  0
  4  1  1  0     0  0
  5  4  2  0     0  0
  6  5  1  0     0  0
  7  3  1  0     0  0
  8 10  1  0     0  0
  9  2  2  0     0  0
 10 11  2  0     0  0
 11 12  1  0     0  0
 12  9  1  0     0  0
 13  8  1  0     0  0
 14  8  1  0     0  0
 15  4  1  0     0  0
 16  6  1  0     0  0
 17  3  1  0     0  0
 18 20  2  0     0  0
 19  7  1  0     0  0
 20 21  1  0     0  0
 21 12  2  0     0  0
 22 17  2  0     0  0
 23 22  1  0     0  0
  7  6  2  0     0  0
 19 23  2  0     0  0
 10 18  1  0     0  0
M  END
> <chembl_id>
CHEMBL180679

$$$$

          11280715432D 1   1.00000     0.00000     0

 31 34  0     0  0            999 V2000
    2.5417    1.1833    0.0000 C   0  0  0  0  0  0           0  0  0
    1.8292    0.7625    0.0000 N   0  0  0  0  0  0           0  0  0
   -1.7208   -0.5042    0.0000 N   0  0  0  0  0  0           0  0  0
   -3.8458   -2.5750    0.0000 B   0  0  0  0  0  0           0  0  0
   -1.0208   -0.0875    0.0000 C   0  0  0  0  0  0           0  0  0
    3.2667    0.7708    0.0000 C   0  0  0  0  0  0           0  0  0
    1.1167    1.1708    0.0000 N   0  0  0  0  0  0           0  0  0
   -2.4458   -0.0917    0.0000 N   0  0  0  0  0  0           0  0  0
   -3.8708   -1.7500    0.0000 C   0  0  0  0  0  0           0  0  0
   -0.2958   -0.4917    0.0000 C   0  0  0  0  0  0           0  0  0
    0.4042   -0.0750    0.0000 C   0  0  0  0  0  0           0  0  0
   -3.1583   -1.3375    0.0000 C   0  0  0  0  0  0           0  0  0
    2.5417    2.0000    0.0000 C   0  0  0  0  0  0           0  0  0
    0.4042    0.7500    0.0000 C   0  0  0  0  0  0           0  0  0
    3.9667    1.1875    0.0000 C   0  0  0  0  0  0           0  0  0
   -3.1583   -0.5125    0.0000 C   0  0  0  0  0  0           0  0  0
   -1.0208    0.7375    0.0000 C   0  0  0  0  0  0           0  0  0
    3.2417    2.4208    0.0000 C   0  0  0  0  0  0           0  0  0
    3.9667    2.0208    0.0000 C   0  0  0  0  0  0           0  0  0
   -4.5583   -3.0000    0.0000 O   0  0  0  0  0  0           0  0  0
   -3.1208   -2.9792    0.0000 O   0  0  0  0  0  0           0  0  0
   -0.2958   -1.3125    0.0000 O   0  0  0  0  0  0           0  0  0
   -0.3208    1.1583    0.0000 C   0  0  0  0  0  0           0  0  0
    1.8167    2.4125    0.0000 O   0  0  0  0  0  0           0  0  0
   -4.5958   -1.3500    0.0000 C   0  0  0  0  0  0           0  0  0
    3.2667   -0.0542    0.0000 C   0  0  0  0  0  0           0  0  0
   -4.5958   -0.5250    0.0000 C   0  0  0  0  0  0           0  0  0
   -3.8833   -0.0917    0.0000 C   0  0  0  0  0  0           0  0  0
    4.6917    0.7875    0.0000 C   0  0  0  0  0  0           0  0  0
    3.9917   -0.4625    0.0000 C   0  0  0  0  0  0           0  0  0
    4.7042   -0.0292    0.0000 C   0  0  0  0  0  0           0  0  0
  2  1  1  0     0  0
  3  5  1  0     0  0
  4  9  1  0     0  0
  5 17  1  0     0  0
  6  1  2  0     0  0
  7  2  2  0     0  0
  8  3  2  0     0  0
  9 12  2  0     0  0
 10 11  1  0     0  0
 11 14  2  0     0  0
 12 16  1  0     0  0
 13  1  1  0     0  0
 14  7  1  0     0  0
 15  6  1  0     0  0
 16  8  1  0     0  0
 17 23  2  0     0  0
 18 13  2  0     0  0
 19 18  1  0     0  0
 20  4  1  0     0  0
 21  4  1  0     0  0
 22 10  1  0     0  0
 23 14  1  0     0  0
 24 13  1  0     0  0
 25 27  2  0     0  0
 26  6  1  0     0  0
 27 28  1  0     0  0
 28 16  2  0     0  0
 29 15  1  0     0  0
 30 26  2  0     0  0
 31 30  1  0     0  0
 15 19  2  0     0  0
 29 31  2  0     0  0
 10  5  2  0     0  0
  9 25  1  0     0  0
M  END
> <chembl_id>
CHEMBL180481

$$$$

          11280715472D 1   1.00000     0.00000     0

 22 23  0     0  0            999 V2000
    2.7125   -0.3625    0.0000 S   0  0  3  0  0  0           0  0  0
    2.0042   -0.7792    0.0000 C   0  0  0  0  0  0           0  0  0
    2.2542   -1.5667    0.0000 C   0  0  0  0  0  0           0  0  0
    6.2792    0.8833    0.0000 S   0  0  3  0  0  0           0  0  0
    3.4250   -0.7750    0.0000 N   0  0  0  0  0  0           0  0  0
    2.8250   -2.1667    0.0000 C   0  0  0  0  0  0           0  0  0
    1.5917   -2.0542    0.0000 S   0  0  0  0  0  0           0  0  0
    1.1792   -0.7792    0.0000 C   0  0  0  0  0  0           0  0  0
    5.5667    0.4708    0.0000 C   0  0  0  0  0  0           0  0  0
    3.4250    0.0583    0.0000 O   0  0  0  0  0  0           0  0  0
    1.9917    0.0500    0.0000 O   0  0  0  0  0  0           0  0  0
    0.9250   -1.5667    0.0000 C   0  0  0  0  0  0           0  0  0
    5.6917    1.4708    0.0000 O   0  0  0  0  0  0           0  0  0
    6.8667    1.4708    0.0000 O   0  0  0  0  0  0           0  0  0
    7.0000    0.4750    0.0000 N   0  0  0  0  0  0           0  0  0
    2.4167   -2.8875    0.0000 O   0  0  0  0  0  0           0  0  0
    4.1417   -0.3625    0.0000 C   0  0  0  0  0  0           0  0  0
    5.5667   -0.3625    0.0000 C   0  0  0  0  0  0           0  0  0
    4.8542    0.8833    0.0000 C   0  0  0  0  0  0           0  0  0
    3.6500   -2.1417    0.0000 O   0  0  0  0  0  0           0  0  0
    4.1417    0.4625    0.0000 C   0  0  0  0  0  0           0  0  0
    4.8542   -0.7750    0.0000 C   0  0  0  0  0  0           0  0  0
  2  1  1  0     0  0
  3  2  2  0     0  0
  4  9  1  0     0  0
  5  1  1  0     0  0
  6  3  1  0     0  0
  7  3  1  0     0  0
  8  2  1  0     0  0
  9 18  1  0     0  0
 10  1  2  0     0  0
 11  1  2  0     0  0
 12  8  2  0     0  0
 13  4  2  0     0  0
 14  4  2  0     0  0
 15  4  1  0     0  0
 16  6  2  0     0  0
 17  5  1  0     0  0
 18 22  2  0     0  0
 19 21  1  0     0  0
 20  6  1  0     0  0
 21 17  2  0     0  0
 22 17  1  0     0  0
  7 12  1  0     0  0
  9 19  2  0     0  0
M  END
> <chembl_id>
CHEMBL371148

$$$$

          11280715472D 1   1.00000     0.00000     0

 19 20  0     0  0            999 V2000
    0.2500    0.4375    0.0000 S   0  0  3  0  0  0           0  0  0
    0.9625    0.8583    0.0000 C   0  0  0  0  0  0           0  0  0
    1.0417    1.6750    0.0000 C   0  0  0  0  0  0           0  0  0
    1.7167    0.5333    0.0000 C   0  0  0  0  0  0           0  0  0
    1.8417    1.8583    0.0000 C   0  0  0  0  0  0           0  0  0
   -0.5083    0.1083    0.0000 N   0  0  0  0  0  0           0  0  0
    2.2542    1.1458    0.0000 O   0  0  0  0  0  0           0  0  0
   -1.1708    0.5958    0.0000 C   0  0  0  0  0  0           0  0  0
    0.4167    2.2208    0.0000 C   0  0  0  0  0  0           0  0  0
   -0.1250    1.1750    0.0000 O   0  0  0  0  0  0           0  0  0
    0.6292   -0.2917    0.0000 O   0  0  0  0  0  0           0  0  0
   -1.9583    0.3375    0.0000 S   0  0  0  0  0  0           0  0  0
   -1.1708    1.4208    0.0000 C   0  0  0  0  0  0           0  0  0
   -2.4458    1.0083    0.0000 C   0  0  0  0  0  0           0  0  0
    0.5875    3.0333    0.0000 O   0  0  0  0  0  0           0  0  0
   -1.9583    1.6708    0.0000 C   0  0  0  0  0  0           0  0  0
   -0.3583    1.9625    0.0000 O   0  0  0  0  0  0           0  0  0
    2.1750    2.6083    0.0000 C   0  0  0  0  0  0           0  0  0
    1.8917   -0.2792    0.0000 C   0  0  0  0  0  0           0  0  0
  2  1  1  0     0  0
  3  2  1  0     0  0
  4  2  2  0     0  0
  5  3  2  0     0  0
  6  1  1  0     0  0
  7  4  1  0     0  0
  8  6  1  0     0  0
  9  3  1  0     0  0
 10  1  2  0     0  0
 11  1  2  0     0  0
 12  8  1  0     0  0
 13  8  2  0     0  0
 14 12  1  0     0  0
 15  9  2  0     0  0
 16 13  1  0     0  0
 17  9  1  0     0  0
 18  5  1  0     0  0
 19  4  1  0     0  0
  7  5  1  0     0  0
 16 14  2  0     0  0
M  END
> <chembl_id>
CHEMBL370041

$$$$

  Mrv0541 04051115152D          

 17 18  0  0  0  0            999 V2000
    3.2751   -0.0917    0.0000 C   0  0  0  0  0  0  0  0  0  0  0  0
    2.5606    0.3208    0.0000 C   0  0  0  0  0  0  0  0  0  0  0  0
    3.2751   -0.9167    0.0000 C   0  0  0  0  0  0  0  0  0  0  0  0
    1.0615    0.1633    0.0000 N   0  0  0  0  0  0  0  0  0  0  0  0
    0.5766   -0.5042    0.0000 C   0  0  0  0  0  0  0  0  0  0  0  0
    1.0615   -1.1716    0.0000 S   0  0  0  0  0  0  0  0  0  0  0  0
    1.8462   -0.9167    0.0000 C   0  0  0  0  0  0  0  0  0  0  0  0
    1.8462   -0.0917    0.0000 C   0  0  0  0  0  0  0  0  0  0  0  0
    2.5606   -1.3292    0.0000 C   0  0  0  0  0  0  0  0  0  0  0  0
   -0.2484   -0.5042    0.0000 S   0  0  0  0  0  0  0  0  0  0  0  0
   -0.6609    0.2103    0.0000 C   0  0  0  0  0  0  0  0  0  0  0  0
   -1.4859    0.2103    0.0000 C   0  0  0  0  0  0  0  0  0  0  0  0
   -1.8984    0.9248    0.0000 C   0  0  0  0  0  0  0  0  0  0  0  0
   -2.7234    0.9248    0.0000 S   0  0  0  0  0  0  0  0  0  0  0  0
   -3.5484    0.9248    0.0000 O   0  0  0  0  0  0  0  0  0  0  0  0
   -2.7234    1.7498    0.0000 O   0  0  0  0  0  0  0  0  0  0  0  0
   -2.7234    0.0998    0.0000 O   0  0  0  0  0  0  0  0  0  0  0  0
  2  1  2  0  0  0  0
  1  3  1  0  0  0  0
  8  2  1  0  0  0  0
  3  9  2  0  0  0  0
  5  4  2  0  0  0  0
  8  4  1  0  0  0  0
  5  6  1  0  0  0  0
  5 10  1  0  0  0  0
  7  6  1  0  0  0  0
  8  7  2  0  0  0  0
  9  7  1  0  0  0  0
 11 10  1  0  0  0  0
 11 12  1  0  0  0  0
 12 13  1  0  0  0  0
 13 14  1  0  0  0  0
 15 14  2  0  0  0  0
 16 14  2  0  0  0  0
 17 14  1  0  0  0  0
M  END
> <chembl_id>
CHEMBL1161789

$$$$

  SciTegic10051218122D

 22 22  0  0  0  0            999 V2000
    1.4167    0.3708    0.0000 C   0  0
    1.8292   -0.3417    0.0000 C   0  0
    0.6042    0.4583    0.0000 N   0  0
    1.4167   -1.0417    0.0000 N   0  0
    0.4417    1.2583    0.0000 C   0  0
    0.1792   -1.7500    0.0000 C   0  0
    2.6542   -0.3417    0.0000 C   0  0
    1.7542    1.1208    0.0000 C   0  0
    1.1417    1.6708    0.0000 S   0  0
   -0.5333   -1.3375    0.0000 C   0  0
    3.0625   -1.0542    0.0000 N   0  0
    0.5917   -1.0417    0.0000 O   0  0
    4.3000   -1.7667    0.0000 B   0  0
    3.8875   -1.0500    0.0000 C   0  0
   -1.2500   -1.7417    0.0000 O   0  0
    3.0625    0.3708    0.0000 O   0  0
   -0.5333   -0.5125    0.0000 O   0  0
   -0.3208    1.6083    0.0000 N   0  0
    5.1250   -1.7667    0.0000 O   0  0
    3.8917   -2.4667    0.0000 O   0  0
   -0.2375   -2.4667    0.0000 C   0  0
    0.8917   -2.1667    0.0000 C   0  0
  2  1  1  0
  3  1  1  0
  4  2  2  0
  5  3  2  0
  6 12  1  0
  7  2  1  0
  8  1  2  0
  9  8  1  0
 10  6  1  0
 11  7  1  0
 12  4  1  0
 13 14  1  0
 14 11  1  0
 15 10  1  0
 16  7  2  0
 17 10  2  0
 18  5  1  0
 19 13  1  0
 20 13  1  0
 21  6  1  0
 22  6  1  0
  5  9  1  0
M  END
> <chembl_id>
CHEMBL2068465

$$$$
